Missing ".ends" statement in file "..\sym\EXTRA\DIODES.COM\ZENER\LIB\zener.lib"
Questionable use of curly braces in "src={bzx84c6v8t}"
    Error: undefined symbol in: "[bzx84c6v8t]"
Circuit: * C:\Users\cliente\Documents\(EngenhariaEletrônica)\(FASE_4)\Eletrônica_I\Fonte_linear\esquematico.asc

WARNING: Less than two connections to node NC_01.  This node is used by L:U2:C.
WARNING: Less than two connections to node NC_02.  This node is used by L:U2:1.
Direct Newton iteration failed to find .op point.  (Use ".option noopiter" to skip.)
Starting Gmin stepping
Gmin = 10
Gmin = 1.07374
Gmin = 0.115292
Gmin = 0.0123794
Gmin = 0.00132923
Gmin = 0.000142725
Gmin = 1.5325e-005
Gmin = 1.6455e-006
Gmin = 1.76685e-007
Gmin = 1.89714e-008
Gmin = 2.03704e-009
Gmin = 2.18725e-010
Gmin = 2.34854e-011
Gmin = 2.52173e-012
Gmin = 2.70769e-013
Gmin = 0
Gmin stepping succeeded in finding the operating point.


Date: Thu Dec 08 18:08:47 2016
Total elapsed time: 2.150 seconds.

tnom = 27
temp = 27
method = modified trap
totiter = 98087
traniter = 97613
tranpoints = 25021
accept = 18390
rejected = 6631
matrix size = 46
fillins = 48
solver = Normal
Matrix Compiler1: 6.37 KB object code size  2.4/1.6/[0.8]
Matrix Compiler2: 4.78 KB object code size  1.5/1.4/[0.9]


