Missing ".ends" statement in file "..\sym\EXTRA\DIODES.COM\ZENER\LIB\zener.lib"
Questionable use of curly braces in "src={bzx84c6v8t}"
    Error: undefined symbol in: "[bzx84c6v8t]"
Circuit: * C:\Users\cliente\Documents\(EngenhariaEletrônica)\(FASE_4)\Eletrônica_I\Fonte_Linear_simetrica_5V\esquematico.asc

Early termination of direct N-R iteration.
Direct Newton iteration failed to find .op point.  (Use ".option noopiter" to skip.)
Starting Gmin stepping
Gmin = 10
Gmin = 1.07374
Gmin = 0.115292
Gmin = 0.0123794
Gmin = 0.00132923
Gmin = 0.000142725
Gmin = 1.5325e-005
Gmin = 1.6455e-006
Gmin = 1.76685e-007
Gmin = 1.89714e-008
Gmin = 2.03704e-009
Gmin = 2.18725e-010
Gmin = 2.34854e-011
Gmin = 2.52173e-012
Gmin = 2.70769e-013
Gmin = 0
Gmin stepping succeeded in finding the operating point.

Heightened Def Con from 0.00920295 to 0.00920295
Heightened Def Con from 0.00920295 ++to 0.00920295
Heightened Def Con from 0.00920295 +++to 0.00920295
Heightened Def Con from 0.00920295 ++to 0.00920295
Heightened Def Con from 0.00920295 to 0.00920295
Heightened Def Con from 0.00920295 to 0.00920295
Heightened Def Con from 0.00920295 to 0.00920296
Heightened Def Con from 0.00920296 to 0.00920296
Heightened Def Con from 0.00920296 +++++to 0.00920296
Heightened Def Con from 0.00920296 +++to 0.00920296
Heightened Def Con from 0.00920296 ++to 0.00920296
Heightened Def Con from 0.00920296 to 0.00920296
Heightened Def Con from 0.00920296 +to 0.00920296
Heightened Def Con from 0.00920296 to 0.00920296
Heightened Def Con from 0.00920296 ++to 0.00920296
Heightened Def Con from 0.00920296 +++to 0.00920296
Heightened Def Con from 0.00920296 ++to 0.00920296
Heightened Def Con from 0.00920296 to 0.00920296
Heightened Def Con from 0.00920296 to 0.00920296
Heightened Def Con from 0.00920296 to 0.00920296
Heightened Def Con from 0.00920296 to 0.00920296
Heightened Def Con from 0.00920296 to 0.00920296
Heightened Def Con from 0.00920296 to 0.00920296
Heightened Def Con from 0.00920296 to 0.00920297
Heightened Def Con from 0.00920297 to 0.00920297
Heightened Def Con from 0.00920297 to 0.00920297
Heightened Def Con from 0.00920297 to 0.00920297
Heightened Def Con from 0.00920297 to 0.00920297
Heightened Def Con from 0.00920297 to 0.00920297
Heightened Def Con from 0.00920297 +++to 0.00920297
Heightened Def Con from 0.00920297 to 0.00920297
Heightened Def Con from 0.00920297 to 0.00920297
Heightened Def Con from 0.00920297 to 0.00920297
Heightened Def Con from 0.00920297 +to 0.00920297
Heightened Def Con from 0.00920297 to 0.00920297
Heightened Def Con from 0.00920297 +to 0.00920297
Heightened Def Con from 0.00920297 to 0.00920297
Heightened Def Con from 0.00920297 +++to 0.00920297
Heightened Def Con from 0.00920297 to 0.00920297
Heightened Def Con from 0.00920297 to 0.00920297
Heightened Def Con from 0.00920297 to 0.00920297
Heightened Def Con from 0.00920297 to 0.00920297
Heightened Def Con from 0.00920297 to 0.00920297
Heightened Def Con from 0.00920297 to 0.00920297
Heightened Def Con from 0.00920297 to 0.00920297
Heightened Def Con from 0.00920297 ++to 0.00920297
Heightened Def Con from 0.00920297 to 0.00920298
Heightened Def Con from 0.00920298 to 0.00920298
Heightened Def Con from 0.00920298 to 0.00920298
Heightened Def Con from 0.00920298 ++to 0.00920298
Heightened Def Con from 0.00920298 to 0.00920298
Heightened Def Con from 0.00920298 to 0.00920298
Heightened Def Con from 0.00920298 to 0.00920298
Heightened Def Con from 0.00920298 to 0.00920298
Heightened Def Con from 0.00920298 to 0.00920298
Heightened Def Con from 0.00920298 ++++to 0.00920298
Heightened Def Con from 0.00920298 +to 0.00920298
Heightened Def Con from 0.00920298 ++++to 0.00920299
Heightened Def Con from 0.00920299 to 0.00920299
Heightened Def Con from 0.00920299 to 0.00920299
Heightened Def Con from 0.00920299 ++to 0.00920299
Heightened Def Con from 0.00920299 +++to 0.00920299
Heightened Def Con from 0.00920299 +to 0.00920299
Heightened Def Con from 0.00920299 +++to 0.00920299
Heightened Def Con from 0.00920299 ++to 0.00920299
Heightened Def Con from 0.00920299 +++++to 0.00920299
Heightened Def Con from 0.00920299 +++to 0.00920299
Heightened Def Con from 0.00920299 +++++to 0.00920299
Heightened Def Con from 0.00920299 +++to 0.00920299
Heightened Def Con from 0.00920299 +++++to 0.00920299
Heightened Def Con from 0.00920299 to 0.00920299
Heightened Def Con from 0.00920299 +++++to 0.00920299
Heightened Def Con from 0.00920299 ++to 0.00920299
Heightened Def Con from 0.00920299 +++to 0.00920299
Heightened Def Con from 0.00920299 ++to 0.00920299
Heightened Def Con from 0.00920299 ++++++to 0.00920299
Heightened Def Con from 0.00920299 +to 0.00920299
Heightened Def Con from 0.009203 +to 0.009203
Heightened Def Con from 0.009203 to 0.009203
Heightened Def Con from 0.009203 ++to 0.009203
Heightened Def Con from 0.009203 +++to 0.009203
Heightened Def Con from 0.009203 +++++to 0.009203
Heightened Def Con from 0.009203 to 0.009203
Heightened Def Con from 0.009203 to 0.009203
Heightened Def Con from 0.009203 ++++++to 0.009203
Heightened Def Con from 0.009203 ++++++to 0.009203
Heightened Def Con from 0.009203 +++to 0.009203
Heightened Def Con from 0.009203 +++to 0.009203
Heightened Def Con from 0.009203 +++to 0.009203
Heightened Def Con from 0.009203 +++++to 0.009203
Heightened Def Con from 0.009203 ++++to 0.009203
Heightened Def Con from 0.009203 ++++to 0.009203
Heightened Def Con from 0.009203 +++to 0.009203
Heightened Def Con from 0.009203 +++++to 0.009203
Heightened Def Con from 0.009203 ++to 0.009203
Heightened Def Con from 0.009203 +++to 0.009203
Heightened Def Con from 0.009203 +++to 0.009203
Heightened Def Con from 0.009203 +++++to 0.009203
Heightened Def Con from 0.009203 +++++to 0.009203
Heightened Def Con from 0.009203 to 0.009203
Heightened Def Con from 0.009203 +++++to 0.009203
Heightened Def Con from 0.009203 +to 0.009203
Heightened Def Con from 0.009203 to 0.00920301
Heightened Def Con from 0.00920301 +++to 0.00920301
Heightened Def Con from 0.00920301 to 0.00920301
Heightened Def Con from 0.00920301 +to 0.00920301
Heightened Def Con from 0.00920301 ++++++to 0.00920301
Heightened Def Con from 0.00920301 to 0.00920301
Heightened Def Con from 0.00920301 ++to 0.00920301
Heightened Def Con from 0.00920301 to 0.00920301
Heightened Def Con from 0.00920301 to 0.00920301
Heightened Def Con from 0.00920301 +++to 0.00920301
Heightened Def Con from 0.00920301 +++++to 0.00920301
Heightened Def Con from 0.00920301 +to 0.00920302
Heightened Def Con from 0.00920302 +++to 0.00920302
Heightened Def Con from 0.00920302 to 0.00920302
Heightened Def Con from 0.00920302 to 0.00920302
Heightened Def Con from 0.00920302 to 0.00920302
Heightened Def Con from 0.00920302 to 0.00920302
Heightened Def Con from 0.00920302 +to 0.00920302
Heightened Def Con from 0.00920302 +to 0.00920302
Heightened Def Con from 0.00920302 to 0.00920302
Heightened Def Con from 0.00920303 +to 0.00920303
Heightened Def Con from 0.00920303 +to 0.00920303
Heightened Def Con from 0.00920303 ++++to 0.00920303
Heightened Def Con from 0.00920303 to 0.00920303
Heightened Def Con from 0.00920303 to 0.00920303
Heightened Def Con from 0.00920303 to 0.00920304
Heightened Def Con from 0.00920304 ++to 0.00920304
Heightened Def Con from 0.00920304 +++to 0.00920304
Heightened Def Con from 0.00920304 ++++to 0.00920304
Heightened Def Con from 0.00920304 ++++to 0.00920304
Heightened Def Con from 0.00920304 to 0.00920304
Heightened Def Con from 0.00920304 ++to 0.00920304
Heightened Def Con from 0.00920304 to 0.00920304
Heightened Def Con from 0.00920305 ++to 0.00920305
Heightened Def Con from 0.00920305 to 0.00920305
Heightened Def Con from 0.00920305 to 0.00920305
Heightened Def Con from 0.00920305 to 0.00920305
Heightened Def Con from 0.00920305 to 0.00920305
Heightened Def Con from 0.00920305 +++to 0.00920305
Heightened Def Con from 0.00920305 to 0.00920305
Heightened Def Con from 0.00920305 +++++to 0.00920305
Heightened Def Con from 0.00920305 to 0.00920305
Heightened Def Con from 0.00920305 +++++to 0.00920305
Heightened Def Con from 0.00920305 ++to 0.00920305
Heightened Def Con from 0.00920305 +++to 0.00920305
Heightened Def Con from 0.00920305 +++++to 0.00920305
Heightened Def Con from 0.00920305 to 0.00920305
Heightened Def Con from 0.00920305 ++to 0.00920305
Heightened Def Con from 0.00920305 ++to 0.00920305
Heightened Def Con from 0.00920305 ++to 0.00920305
Heightened Def Con from 0.00920305 +++to 0.00920305
Heightened Def Con from 0.00920305 +++++to 0.00920305
Heightened Def Con from 0.00920305 ++to 0.00920305
Heightened Def Con from 0.00920305 ++++to 0.00920305
Heightened Def Con from 0.00920305 +++to 0.00920305
Heightened Def Con from 0.00920305 ++++++++to 0.00920305
Heightened Def Con from 0.00920305 to 0.00920305
Heightened Def Con from 0.00920305 to 0.00920305
Heightened Def Con from 0.00920305 ++to 0.00920305
Heightened Def Con from 0.00920305 ++++++to 0.00920305
Heightened Def Con from 0.00920305 +to 0.00920305
Heightened Def Con from 0.00920305 to 0.00920305
Heightened Def Con from 0.00920305 to 0.00920305
Heightened Def Con from 0.00920306 ++to 0.00920306
Heightened Def Con from 0.00920306 to 0.00920306
Heightened Def Con from 0.00920306 to 0.00920306
Heightened Def Con from 0.00920306 to 0.00920306
Heightened Def Con from 0.00920306 to 0.00920306
Heightened Def Con from 0.00920306 to 0.00920306
Heightened Def Con from 0.00920306 to 0.00920306
Heightened Def Con from 0.00920306 to 0.00920306
Heightened Def Con from 0.00920307 ++to 0.00920307
Heightened Def Con from 0.00920307 to 0.00920307
Heightened Def Con from 0.00920307 to 0.00920307
Heightened Def Con from 0.00920307 ++to 0.00920307
Heightened Def Con from 0.00920307 +++to 0.00920307
Heightened Def Con from 0.00920307 ++to 0.00920307
Heightened Def Con from 0.00920307 ++to 0.00920307
Heightened Def Con from 0.00920307 ++to 0.00920307
Heightened Def Con from 0.00920307 +to 0.00920307
Heightened Def Con from 0.00920307 to 0.00920307
Heightened Def Con from 0.00920307 to 0.00920307
Heightened Def Con from 0.00920307 to 0.00920307
Heightened Def Con from 0.00920307 to 0.00920307
Heightened Def Con from 0.00920307 +++to 0.00920307
Heightened Def Con from 0.00920307 ++to 0.00920307
Heightened Def Con from 0.00920307 to 0.00920307
Heightened Def Con from 0.00920307 +to 0.00920307
Heightened Def Con from 0.00920307 to 0.00920307
Heightened Def Con from 0.00920307 +++to 0.00920307
Heightened Def Con from 0.00920307 to 0.00920307
Heightened Def Con from 0.00920307 to 0.00920307
Heightened Def Con from 0.00920308 ++++to 0.00920308
Heightened Def Con from 0.00920308 +++++to 0.00920308
Heightened Def Con from 0.00920308 to 0.00920308
Heightened Def Con from 0.00920308 +to 0.00920308
Heightened Def Con from 0.00920308 ++to 0.00920308
Heightened Def Con from 0.00920308 +++to 0.00920308
Heightened Def Con from 0.00920308 to 0.00920308
Heightened Def Con from 0.00920308 to 0.00920308
Heightened Def Con from 0.00920308 to 0.00920308
Heightened Def Con from 0.00920308 +++to 0.00920308
Heightened Def Con from 0.00920308 to 0.00920308
Heightened Def Con from 0.00920308 to 0.00920308
Heightened Def Con from 0.00920308 to 0.00920308
Heightened Def Con from 0.00920308 +++++to 0.00920308
Heightened Def Con from 0.00920308 +++++to 0.00920308
Heightened Def Con from 0.00920308 to 0.00920309
Heightened Def Con from 0.00920309 +++to 0.00920309
Heightened Def Con from 0.00920309 ++to 0.00920309
Heightened Def Con from 0.00920309 ++++to 0.00920309
Heightened Def Con from 0.00920309 +to 0.00920309
Heightened Def Con from 0.00920309 ++++to 0.00920309
Heightened Def Con from 0.00920309 ++to 0.00920309
Heightened Def Con from 0.00920309 to 0.00920309
Heightened Def Con from 0.00920309 +to 0.00920309
Heightened Def Con from 0.00920309 +to 0.00920309
Heightened Def Con from 0.00920309 +++to 0.00920309
Heightened Def Con from 0.00920309 to 0.00920309
Heightened Def Con from 0.00920309 to 0.00920309
Heightened Def Con from 0.00920309 ++to 0.00920309
Heightened Def Con from 0.00920309 to 0.00920309
Heightened Def Con from 0.00920309 to 0.00920309
Heightened Def Con from 0.00920309 to 0.00920309
Heightened Def Con from 0.0092031 ++to 0.0092031
Heightened Def Con from 0.0092031 ++++to 0.0092031
Heightened Def Con from 0.0092031 ++to 0.0092031
Heightened Def Con from 0.0092031 ++to 0.0092031
Heightened Def Con from 0.0092031 +++to 0.0092031
Heightened Def Con from 0.0092031 ++to 0.0092031
Heightened Def Con from 0.0092031 ++to 0.0092031
Heightened Def Con from 0.0092031 +++to 0.0092031
Heightened Def Con from 0.0092031 ++to 0.0092031
Heightened Def Con from 0.0092031 ++to 0.0092031
Heightened Def Con from 0.0092031 ++++to 0.0092031
Heightened Def Con from 0.0092031 +++to 0.0092031
Heightened Def Con from 0.0092031 ++++to 0.0092031
Heightened Def Con from 0.0092031 to 0.0092031
Heightened Def Con from 0.0092031 +to 0.0092031
Heightened Def Con from 0.0092031 +++to 0.0092031
Heightened Def Con from 0.0092031 ++to 0.0092031
Heightened Def Con from 0.0092031 ++++++to 0.0092031
Heightened Def Con from 0.0092031 +++to 0.0092031
Heightened Def Con from 0.0092031 ++to 0.0092031
Heightened Def Con from 0.0092031 +++to 0.0092031
Heightened Def Con from 0.0092031 to 0.0092031
Heightened Def Con from 0.0092031 +++to 0.0092031
Heightened Def Con from 0.0092031 ++to 0.0092031
Heightened Def Con from 0.0092031 +++++to 0.0092031
Heightened Def Con from 0.0092031 +++to 0.0092031
Heightened Def Con from 0.0092031 +++to 0.0092031
Heightened Def Con from 0.0092031 to 0.0092031
Heightened Def Con from 0.0092031 +++++to 0.0092031
Heightened Def Con from 0.0092031 +to 0.0092031
Heightened Def Con from 0.0092031 +to 0.0092031
Heightened Def Con from 0.0092031 +++++to 0.0092031
Heightened Def Con from 0.0092031 ++++to 0.00920311
Heightened Def Con from 0.00920311 ++++to 0.00920311
Heightened Def Con from 0.00920311 to 0.00920311
Heightened Def Con from 0.00920311 +++++to 0.00920311
Heightened Def Con from 0.00920311 +++to 0.00920311
Heightened Def Con from 0.00920311 +++to 0.00920311
Heightened Def Con from 0.00920311 to 0.00920311
Heightened Def Con from 0.00920311 ++++to 0.00920311
Heightened Def Con from 0.00920311 ++to 0.00920311
Heightened Def Con from 0.00920311 +++++to 0.00920311
Heightened Def Con from 0.00920311 to 0.00920311
Heightened Def Con from 0.00920311 to 0.00920311
Heightened Def Con from 0.00920311 to 0.00920311
Heightened Def Con from 0.00920311 to 0.00920311
Heightened Def Con from 0.00920311 +++to 0.00920311
Heightened Def Con from 0.00920311 +++to 0.00920311
Heightened Def Con from 0.00920311 +to 0.00920311
Heightened Def Con from 0.00920311 +to 0.00920311
Heightened Def Con from 0.00920311 +++++to 0.00920311
Heightened Def Con from 0.00920311 ++to 0.00920311
Heightened Def Con from 0.00920311 +++to 0.00920311
Heightened Def Con from 0.00920311 +to 0.00920311
Heightened Def Con from 0.00920311 to 0.00920311
Heightened Def Con from 0.00920311 +++to 0.00920311
Heightened Def Con from 0.00920311 +++to 0.00920311
Heightened Def Con from 0.00920311 +++++to 0.00920311
Heightened Def Con from 0.00920311 ++++to 0.00920312
Heightened Def Con from 0.00920312 +++to 0.00920312
Heightened Def Con from 0.00920312 ++++to 0.00920312
Heightened Def Con from 0.00920312 ++to 0.00920312
Heightened Def Con from 0.00920312 +to 0.00920312
Heightened Def Con from 0.00920312 ++to 0.00920312
Heightened Def Con from 0.00920312 ++to 0.00920312
Heightened Def Con from 0.00920312 +to 0.00920312
Heightened Def Con from 0.00920312 +to 0.00920312
Heightened Def Con from 0.00920312 ++++to 0.00920312
Heightened Def Con from 0.00920312 +++to 0.00920312
Heightened Def Con from 0.00920312 +++to 0.00920312
Heightened Def Con from 0.00920312 ++++to 0.00920312
Heightened Def Con from 0.00920312 +++to 0.00920312
Heightened Def Con from 0.00920312 +to 0.00920312
Heightened Def Con from 0.00920312 +++to 0.00920312
Heightened Def Con from 0.00920312 +++to 0.00920312
Heightened Def Con from 0.00920312 ++++to 0.00920312
Heightened Def Con from 0.00920312 +++to 0.00920312
Heightened Def Con from 0.00920312 +++++to 0.00920312
Heightened Def Con from 0.00920312 +to 0.00920312
Heightened Def Con from 0.00920312 +++to 0.00920312
Heightened Def Con from 0.00920312 ++++to 0.00920312
Heightened Def Con from 0.00920312 +to 0.00920312
Heightened Def Con from 0.00920312 +++to 0.00920312
Heightened Def Con from 0.00920312 to 0.00920312
Heightened Def Con from 0.00920312 +to 0.00920312
Heightened Def Con from 0.00920312 +to 0.00920312
Heightened Def Con from 0.00920312 ++to 0.00920312
Heightened Def Con from 0.00920312 ++to 0.00920312
Heightened Def Con from 0.00920312 ++to 0.00920312
Heightened Def Con from 0.00920312 +to 0.00920312
Heightened Def Con from 0.00920312 +++to 0.00920312
Heightened Def Con from 0.00920312 +++to 0.00920312
Heightened Def Con from 0.00920312 ++++to 0.00920312
Heightened Def Con from 0.00920312 +++to 0.00920312
Heightened Def Con from 0.00920312 +++to 0.00920312
Heightened Def Con from 0.00920312 ++to 0.00920312
Heightened Def Con from 0.00920312 ++++to 0.00920312
Heightened Def Con from 0.00920312 +++to 0.00920312
Heightened Def Con from 0.00920312 ++to 0.00920312
Heightened Def Con from 0.00920312 ++to 0.00920312
Heightened Def Con from 0.00920312 ++++to 0.00920312
Heightened Def Con from 0.00920312 ++to 0.00920312
Heightened Def Con from 0.00920312 to 0.00920312
Heightened Def Con from 0.00920312 +to 0.00920312
Heightened Def Con from 0.00920312 +++to 0.00920312
Heightened Def Con from 0.00920312 ++to 0.00920312
Heightened Def Con from 0.00920312 to 0.00920313
Heightened Def Con from 0.00920313 ++to 0.00920313
Heightened Def Con from 0.00920313 +++++to 0.00920313
Heightened Def Con from 0.00920313 ++++to 0.00920313
Heightened Def Con from 0.00920313 +++to 0.00920313
Heightened Def Con from 0.00920313 +++to 0.00920313
Heightened Def Con from 0.00920313 +++to 0.00920313
Heightened Def Con from 0.00920313 ++++to 0.00920313
Heightened Def Con from 0.00920313 +++++to 0.00920313
Heightened Def Con from 0.00920313 +++++++to 0.00920313
Heightened Def Con from 0.00920313 +to 0.00920313
Heightened Def Con from 0.00920313 ++to 0.00920313
Heightened Def Con from 0.00920313 +++++to 0.00920313
Heightened Def Con from 0.00920313 +to 0.00920314
Heightened Def Con from 0.00920314 +to 0.00920314
Heightened Def Con from 0.00920314 to 0.00920314
Heightened Def Con from 0.00920314 to 0.00920314
Heightened Def Con from 0.00920314 to 0.00920314
Heightened Def Con from 0.00920314 to 0.00920314
Heightened Def Con from 0.00920314 to 0.00920314
Heightened Def Con from 0.00920314 +++to 0.00920314
Heightened Def Con from 0.00920314 to 0.00920314
Heightened Def Con from 0.00920314 to 0.00920314
Heightened Def Con from 0.00920314 ++++to 0.00920314
Heightened Def Con from 0.00920314 +++to 0.00920315
Heightened Def Con from 0.00920315 +++to 0.00920315
Heightened Def Con from 0.00920315 +++++to 0.00920315
Heightened Def Con from 0.00920315 to 0.00920315
Heightened Def Con from 0.00920315 to 0.00920315
Heightened Def Con from 0.00920315 to 0.00920315
Heightened Def Con from 0.00920315 to 0.00920315
Heightened Def Con from 0.00920315 ++++++to 0.00920315
Heightened Def Con from 0.00920315 to 0.00920315
Heightened Def Con from 0.00920316 to 0.00920316
Heightened Def Con from 0.00920316 +++++to 0.00920316
Heightened Def Con from 0.00920316 to 0.00920316
Heightened Def Con from 0.00920317 +++to 0.00920317
Heightened Def Con from 0.00920317 +to 0.00920317
Heightened Def Con from 0.00920317 ++++to 0.00920317
Heightened Def Con from 0.00920317 ++++to 0.00920317
Heightened Def Con from 0.00920317 ++to 0.00920317
Heightened Def Con from 0.00920317 +++to 0.00920317
Heightened Def Con from 0.00920317 to 0.00920317
Heightened Def Con from 0.00920317 to 0.00920317
Heightened Def Con from 0.00920317 +to 0.00920317
Heightened Def Con from 0.00920317 to 0.00920317
Heightened Def Con from 0.00920317 +to 0.00920317
Heightened Def Con from 0.00920317 ++to 0.00920317
Heightened Def Con from 0.00920317 ++to 0.00920317
Heightened Def Con from 0.00920317 +to 0.00920317
Heightened Def Con from 0.00920317 +++++to 0.00920317
Heightened Def Con from 0.00920318 +to 0.00920318
Heightened Def Con from 0.00920318 to 0.00920318
Heightened Def Con from 0.00920318 to 0.00920318
Heightened Def Con from 0.00920318 to 0.00920318
Heightened Def Con from 0.00920318 to 0.00920318
Heightened Def Con from 0.00920318 ++to 0.00920318
Heightened Def Con from 0.00920318 to 0.00920318
Heightened Def Con from 0.00920318 +++++++to 0.00920318
Heightened Def Con from 0.00920318 to 0.00920318
Heightened Def Con from 0.00920318 to 0.00920319
Heightened Def Con from 0.00920319 to 0.00920319
Heightened Def Con from 0.00920319 to 0.00920319
Heightened Def Con from 0.00920319 ++to 0.00920319
Heightened Def Con from 0.00920319 ++++to 0.00920319
Heightened Def Con from 0.00920319 +to 0.00920319
Heightened Def Con from 0.00920319 to 0.00920319
Heightened Def Con from 0.00920319 to 0.00920319
Heightened Def Con from 0.00920319 +to 0.00920319
Heightened Def Con from 0.00920319 +to 0.00920319
Heightened Def Con from 0.00920319 to 0.00920319
Heightened Def Con from 0.00920319 +++++to 0.0092032
Heightened Def Con from 0.0092032 to 0.0092032
Heightened Def Con from 0.0092032 ++to 0.0092032
Heightened Def Con from 0.0092032 to 0.0092032
Heightened Def Con from 0.0092032 ++to 0.0092032
Heightened Def Con from 0.0092032 to 0.0092032
Heightened Def Con from 0.0092032 to 0.0092032
Heightened Def Con from 0.0092032 to 0.0092032
Heightened Def Con from 0.0092032 to 0.0092032
Heightened Def Con from 0.0092032 to 0.0092032
Heightened Def Con from 0.0092032 ++to 0.0092032
Heightened Def Con from 0.0092032 ++to 0.0092032
Heightened Def Con from 0.0092032 to 0.0092032
Heightened Def Con from 0.0092032 +++++to 0.0092032
Heightened Def Con from 0.0092032 to 0.0092032
Heightened Def Con from 0.0092032 ++to 0.0092032
Heightened Def Con from 0.0092032 to 0.0092032
Heightened Def Con from 0.0092032 to 0.00920321
Heightened Def Con from 0.00920321 +++++to 0.00920321
Heightened Def Con from 0.00920321 to 0.00920321
Heightened Def Con from 0.00920321 +++++to 0.00920321
Heightened Def Con from 0.00920321 +++to 0.00920321
Heightened Def Con from 0.00920321 +++to 0.00920321
Heightened Def Con from 0.00920321 +++to 0.00920321
Heightened Def Con from 0.00920321 to 0.00920321
Heightened Def Con from 0.00920321 to 0.00920321
Heightened Def Con from 0.00920321 to 0.00920321
Heightened Def Con from 0.00920321 +++to 0.00920321
Heightened Def Con from 0.00920321 to 0.00920321
Heightened Def Con from 0.00920321 to 0.00920321
Heightened Def Con from 0.00920321 to 0.00920321
Heightened Def Con from 0.00920321 to 0.00920321
Heightened Def Con from 0.00920321 ++to 0.00920321
Heightened Def Con from 0.00920321 to 0.00920321
Heightened Def Con from 0.00920321 ++++to 0.00920321
Heightened Def Con from 0.00920321 ++to 0.00920321
Heightened Def Con from 0.00920321 to 0.00920321
Heightened Def Con from 0.00920321 ++to 0.00920321
Heightened Def Con from 0.00920321 to 0.00920321
Heightened Def Con from 0.00920321 to 0.00920321
Heightened Def Con from 0.00920321 to 0.00920321
Heightened Def Con from 0.00920321 +to 0.00920321
Heightened Def Con from 0.00920321 to 0.00920322
Heightened Def Con from 0.00920322 ++++to 0.00920322
Heightened Def Con from 0.00920322 +to 0.00920322
Heightened Def Con from 0.00920322 ++to 0.00920322
Heightened Def Con from 0.00920322 to 0.00920322
Heightened Def Con from 0.00920322 ++to 0.00920322
Heightened Def Con from 0.00920322 +to 0.00920322
Heightened Def Con from 0.00920322 +to 0.00920322
Heightened Def Con from 0.00920322 ++to 0.00920322
Heightened Def Con from 0.00920322 +to 0.00920322
Heightened Def Con from 0.00920322 ++to 0.00920322
Heightened Def Con from 0.00920322 ++to 0.00920322
Heightened Def Con from 0.00920322 to 0.00920322
Heightened Def Con from 0.00920322 ++++to 0.00920322
Heightened Def Con from 0.00920322 ++to 0.00920322
Heightened Def Con from 0.00920322 to 0.00920322
Heightened Def Con from 0.00920322 ++++to 0.00920322
Heightened Def Con from 0.00920322 ++to 0.00920322
Heightened Def Con from 0.00920322 to 0.00920322
Heightened Def Con from 0.00920322 ++++++to 0.00920322
Heightened Def Con from 0.00920322 +to 0.00920322
Heightened Def Con from 0.00920322 ++++++to 0.00920322
Heightened Def Con from 0.00920322 +++++to 0.00920322
Heightened Def Con from 0.00920322 ++++to 0.00920322
Heightened Def Con from 0.00920322 +++to 0.00920322
Heightened Def Con from 0.00920322 +to 0.00920322
Heightened Def Con from 0.00920322 +++++to 0.00920322
Heightened Def Con from 0.00920322 +++to 0.00920322
Heightened Def Con from 0.00920322 +++++++to 0.00920322
Heightened Def Con from 0.00920322 +++to 0.00920322
Heightened Def Con from 0.00920322 ++++to 0.00920322
Heightened Def Con from 0.00920322 +++++to 0.00920322
Heightened Def Con from 0.00920322 +to 0.00920322
Heightened Def Con from 0.00920322 +++to 0.00920322
Heightened Def Con from 0.00920322 to 0.00920322
Heightened Def Con from 0.00920322 +++++to 0.00920323
Heightened Def Con from 0.00920323 +++to 0.00920323
Heightened Def Con from 0.00920323 to 0.00920323
Heightened Def Con from 0.00920323 to 0.00920323
Heightened Def Con from 0.00920323 +++to 0.00920323
Heightened Def Con from 0.00920323 ++++to 0.00920323
Heightened Def Con from 0.00920323 +++++to 0.00920323
Heightened Def Con from 0.00920323 ++to 0.00920323
Heightened Def Con from 0.00920323 to 0.00920323
Heightened Def Con from 0.00920323 +++to 0.00920323
Heightened Def Con from 0.00920323 +to 0.00920323
Heightened Def Con from 0.00920323 ++to 0.00920323
Heightened Def Con from 0.00920324 ++++++to 0.00920324
Heightened Def Con from 0.00920324 to 0.00920324
Heightened Def Con from 0.00920324 to 0.00920324
Heightened Def Con from 0.00920324 to 0.00920324
Heightened Def Con from 0.00920324 to 0.00920324
Heightened Def Con from 0.00920324 ++to 0.00920324
Heightened Def Con from 0.00920324 +to 0.00920324
Heightened Def Con from 0.00920324 ++to 0.00920324
Heightened Def Con from 0.00920324 to 0.00920324
Heightened Def Con from 0.00920324 to 0.00920324
Heightened Def Con from 0.00920324 +to 0.00920324
Heightened Def Con from 0.00920324 ++to 0.00920324
Heightened Def Con from 0.00920324 ++to 0.00920324
Heightened Def Con from 0.00920324 +++to 0.00920324
Heightened Def Con from 0.00920324 to 0.00920324
Heightened Def Con from 0.00920324 to 0.00920324
Heightened Def Con from 0.00920324 ++to 0.00920324
Heightened Def Con from 0.00920325 to 0.00920325
Heightened Def Con from 0.00920325 to 0.00920325
Heightened Def Con from 0.00920325 to 0.00920325
Heightened Def Con from 0.00920325 +++to 0.00920325
Heightened Def Con from 0.00920325 to 0.00920325
Heightened Def Con from 0.00920325 to 0.00920325
Heightened Def Con from 0.00920325 to 0.00920325
Heightened Def Con from 0.00920325 +++to 0.00920325
Heightened Def Con from 0.00920325 to 0.00920325
Heightened Def Con from 0.00920325 to 0.00920325
Heightened Def Con from 0.00920325 to 0.00920325
Heightened Def Con from 0.00920325 to 0.00920325
Heightened Def Con from 0.00920325 to 0.00920325
Heightened Def Con from 0.00920325 to 0.00920325
Heightened Def Con from 0.00920325 to 0.00920325
Heightened Def Con from 0.00920325 to 0.00920325
Heightened Def Con from 0.00920325 to 0.00920325
Heightened Def Con from 0.00920325 ++to 0.00920325
Heightened Def Con from 0.00920325 +++to 0.00920325
Heightened Def Con from 0.00920325 ++to 0.00920325
Heightened Def Con from 0.00920325 to 0.00920325
Heightened Def Con from 0.00920325 +++to 0.00920325
Heightened Def Con from 0.00920325 ++to 0.00920325
Heightened Def Con from 0.00920325 ++to 0.00920326
Heightened Def Con from 0.00920326 to 0.00920326
Heightened Def Con from 0.00920326 +++to 0.00920326
Heightened Def Con from 0.00920326 to 0.00920326
Heightened Def Con from 0.00920326 +++to 0.00920326
Heightened Def Con from 0.00920326 +to 0.00920326
Heightened Def Con from 0.00920326 to 0.00920326
Heightened Def Con from 0.00920326 to 0.00920326
Heightened Def Con from 0.00920326 to 0.00920326
Heightened Def Con from 0.00920326 +++to 0.00920326
Heightened Def Con from 0.00920326 to 0.00920326
Heightened Def Con from 0.00920326 +++++to 0.00920326
Heightened Def Con from 0.00920326 ++to 0.00920326
Heightened Def Con from 0.00920326 +to 0.00920326
Heightened Def Con from 0.00920326 +to 0.00920326
Heightened Def Con from 0.00920326 to 0.00920326
Heightened Def Con from 0.00920326 +++to 0.00920326
Heightened Def Con from 0.00920326 to 0.00920326
Heightened Def Con from 0.00920326 ++++to 0.00920326
Heightened Def Con from 0.00920326 +++to 0.00920326
Heightened Def Con from 0.00920326 ++to 0.00920326
Heightened Def Con from 0.00920326 to 0.00920326
Heightened Def Con from 0.00920327 ++to 0.00920327
Heightened Def Con from 0.00920327 to 0.00920327
Heightened Def Con from 0.00920327 ++to 0.00920327
Heightened Def Con from 0.00920327 to 0.00920327
Heightened Def Con from 0.00920327 to 0.00920327
Heightened Def Con from 0.00920327 to 0.00920327
Heightened Def Con from 0.00920327 to 0.00920327
Heightened Def Con from 0.00920327 to 0.00920327
Heightened Def Con from 0.00920327 +to 0.00920327
Heightened Def Con from 0.00920327 to 0.00920327
Heightened Def Con from 0.00920327 ++to 0.00920327
Heightened Def Con from 0.00920327 +++to 0.00920327
Heightened Def Con from 0.00920327 ++to 0.00920327
Heightened Def Con from 0.00920327 +to 0.00920327
Heightened Def Con from 0.00920327 to 0.00920327
Heightened Def Con from 0.00920327 ++to 0.00920327
Heightened Def Con from 0.00920327 to 0.00920327
Heightened Def Con from 0.00920327 +++to 0.00920327
Heightened Def Con from 0.00920327 to 0.00920327
Heightened Def Con from 0.00920327 ++++to 0.00920327
Heightened Def Con from 0.00920327 +++to 0.00920327
Heightened Def Con from 0.00920327 ++++++to 0.00920327
Heightened Def Con from 0.00920327 +++to 0.00920327
Heightened Def Con from 0.00920327 +++to 0.00920327
Heightened Def Con from 0.00920327 +++to 0.00920327
Heightened Def Con from 0.00920327 ++++++to 0.00920328
Heightened Def Con from 0.00920328 to 0.00920328
Heightened Def Con from 0.00920329 to 0.00920329
Heightened Def Con from 0.00920329 to 0.00920329
Heightened Def Con from 0.00920329 ++to 0.00920329
Heightened Def Con from 0.00920329 +++++to 0.00920329
Heightened Def Con from 0.00920329 +to 0.00920329
Heightened Def Con from 0.00920329 +to 0.00920329
Heightened Def Con from 0.00920329 +to 0.0092033
Heightened Def Con from 0.0092033 +++++to 0.0092033
Heightened Def Con from 0.0092033 +++to 0.0092033
Heightened Def Con from 0.0092033 to 0.0092033
Heightened Def Con from 0.0092033 to 0.0092033
Heightened Def Con from 0.0092033 to 0.0092033
Heightened Def Con from 0.0092033 to 0.0092033
Heightened Def Con from 0.0092033 to 0.0092033
Heightened Def Con from 0.0092033 to 0.0092033
Heightened Def Con from 0.0092033 ++to 0.0092033
Heightened Def Con from 0.0092033 to 0.0092033
Heightened Def Con from 0.0092033 to 0.0092033
Heightened Def Con from 0.0092033 +to 0.0092033
Heightened Def Con from 0.0092033 to 0.0092033
Heightened Def Con from 0.0092033 ++++++to 0.0092033
Heightened Def Con from 0.0092033 ++++to 0.0092033
Heightened Def Con from 0.0092033 to 0.0092033
Heightened Def Con from 0.0092033 to 0.0092033
Heightened Def Con from 0.0092033 to 0.0092033
Heightened Def Con from 0.0092033 +++to 0.0092033
Heightened Def Con from 0.0092033 to 0.0092033
Heightened Def Con from 0.0092033 to 0.0092033
Heightened Def Con from 0.0092033 to 0.0092033
Heightened Def Con from 0.0092033 +++to 0.0092033
Heightened Def Con from 0.0092033 +to 0.0092033
Heightened Def Con from 0.0092033 to 0.0092033
Heightened Def Con from 0.0092033 to 0.0092033
Heightened Def Con from 0.0092033 to 0.0092033
Heightened Def Con from 0.0092033 to 0.0092033
Heightened Def Con from 0.0092033 to 0.0092033
Heightened Def Con from 0.00920331 to 0.00920331
Heightened Def Con from 0.00920331 to 0.00920331
Heightened Def Con from 0.00920331 +++to 0.00920331
Heightened Def Con from 0.00920331 to 0.00920331
Heightened Def Con from 0.00920331 to 0.00920331
Heightened Def Con from 0.00920331 to 0.00920331
Heightened Def Con from 0.00920331 to 0.00920331
Heightened Def Con from 0.00920333 +to 0.00920333
Heightened Def Con from 0.00920333 ++++++to 0.00920333
Heightened Def Con from 0.00920333 to 0.00920333
Heightened Def Con from 0.00920333 to 0.00920333
Heightened Def Con from 0.00920333 to 0.00920333
Heightened Def Con from 0.00920333 ++to 0.00920333
Heightened Def Con from 0.00920333 to 0.00920333
Heightened Def Con from 0.00920333 ++to 0.00920333
Heightened Def Con from 0.00920333 +++to 0.00920333
Heightened Def Con from 0.00920333 to 0.00920333
Heightened Def Con from 0.00920333 +++to 0.00920334
Heightened Def Con from 0.00920334 to 0.00920334
Heightened Def Con from 0.00920334 ++++to 0.00920334
Heightened Def Con from 0.00920334 to 0.00920334
Heightened Def Con from 0.00920334 to 0.00920334
Heightened Def Con from 0.00920334 +++++to 0.00920334
Heightened Def Con from 0.00920334 +++++to 0.00920334
Heightened Def Con from 0.00920334 +to 0.00920334
Heightened Def Con from 0.00920334 ++++++to 0.00920334
Heightened Def Con from 0.00920334 +++to 0.00920334
Heightened Def Con from 0.00920334 +++to 0.00920334
Heightened Def Con from 0.00920334 +++++to 0.00920334
Heightened Def Con from 0.00920334 ++to 0.00920334
Heightened Def Con from 0.00920334 to 0.00920334
Heightened Def Con from 0.00920334 to 0.00920334
Heightened Def Con from 0.00920334 to 0.00920334
Heightened Def Con from 0.00920334 to 0.00920334
Heightened Def Con from 0.00920334 to 0.00920334
Heightened Def Con from 0.00920334 ++to 0.00920334
Heightened Def Con from 0.00920334 to 0.00920334
Heightened Def Con from 0.00920334 +to 0.00920334
Heightened Def Con from 0.00920335 ++to 0.00920335
Heightened Def Con from 0.00920335 ++to 0.00920335
Heightened Def Con from 0.00920335 to 0.00920335
Heightened Def Con from 0.00920335 to 0.00920335
Heightened Def Con from 0.00920335 +++to 0.00920335
Heightened Def Con from 0.00920335 +to 0.00920335
Heightened Def Con from 0.00920335 to 0.00920335
Heightened Def Con from 0.00920335 to 0.00920335
Heightened Def Con from 0.00920335 to 0.00920335
Heightened Def Con from 0.00920335 to 0.00920335
Heightened Def Con from 0.00920335 to 0.00920335
Heightened Def Con from 0.00920335 ++to 0.00920335
Heightened Def Con from 0.00920335 to 0.00920335
Heightened Def Con from 0.00920335 to 0.00920336
Heightened Def Con from 0.00920336 to 0.00920336
Heightened Def Con from 0.00920336 to 0.00920336
Heightened Def Con from 0.00920336 +to 0.00920336
Heightened Def Con from 0.00920336 to 0.00920336
Heightened Def Con from 0.00920336 to 0.00920336
Heightened Def Con from 0.00920336 +to 0.00920336
Heightened Def Con from 0.00920336 to 0.00920336
Heightened Def Con from 0.00920337 to 0.00920337
Heightened Def Con from 0.00920337 to 0.00920337
Heightened Def Con from 0.00920337 to 0.00920337
Heightened Def Con from 0.00920337 ++++to 0.00920337
Heightened Def Con from 0.00920337 to 0.00920337
Heightened Def Con from 0.00920337 to 0.00920337
Heightened Def Con from 0.00920337 +to 0.00920337
Heightened Def Con from 0.00920337 to 0.00920337
Heightened Def Con from 0.00920337 to 0.00920337
Heightened Def Con from 0.00920337 to 0.00920337
Heightened Def Con from 0.00920337 to 0.00920337
Heightened Def Con from 0.00920337 to 0.00920337
Heightened Def Con from 0.00920337 ++to 0.00920337
Heightened Def Con from 0.00920337 +to 0.00920337
Heightened Def Con from 0.00920337 to 0.00920337
Heightened Def Con from 0.00920337 to 0.00920337
Heightened Def Con from 0.00920337 to 0.00920337
Heightened Def Con from 0.00920337 +to 0.00920337
Heightened Def Con from 0.00920337 to 0.00920337
Heightened Def Con from 0.00920337 to 0.00920337
Heightened Def Con from 0.00920337 to 0.00920337
Heightened Def Con from 0.00920337 to 0.00920337
Heightened Def Con from 0.00920337 to 0.00920337
Heightened Def Con from 0.00920337 +++to 0.00920337
Heightened Def Con from 0.00920337 ++to 0.00920337
Heightened Def Con from 0.00920337 to 0.00920337
Heightened Def Con from 0.00920337 to 0.00920338
Heightened Def Con from 0.00920338 to 0.00920338
Heightened Def Con from 0.00920338 to 0.00920338
Heightened Def Con from 0.00920338 to 0.00920338
Heightened Def Con from 0.00920338 to 0.00920338
Heightened Def Con from 0.00920338 ++++to 0.00920338
Heightened Def Con from 0.00920338 ++to 0.00920338
Heightened Def Con from 0.00920338 to 0.00920338
Heightened Def Con from 0.00920338 to 0.00920338
Heightened Def Con from 0.00920338 to 0.00920338
Heightened Def Con from 0.00920338 to 0.00920338
Heightened Def Con from 0.00920338 +to 0.00920338
Heightened Def Con from 0.00920338 to 0.00920338
Heightened Def Con from 0.00920338 to 0.00920338
Heightened Def Con from 0.00920338 to 0.00920338
Heightened Def Con from 0.00920338 to 0.00920338
Heightened Def Con from 0.00920338 ++to 0.00920338
Heightened Def Con from 0.00920338 +++to 0.00920338
Heightened Def Con from 0.00920338 to 0.00920338
Heightened Def Con from 0.00920338 to 0.00920338
Heightened Def Con from 0.00920338 +++to 0.00920338
Heightened Def Con from 0.00920339 to 0.00920339
Heightened Def Con from 0.00920339 to 0.00920339
Heightened Def Con from 0.00920339 +to 0.00920339
Heightened Def Con from 0.00920339 +to 0.00920339
Heightened Def Con from 0.00920339 to 0.00920339
Heightened Def Con from 0.00920339 +to 0.00920339
Heightened Def Con from 0.00920339 to 0.00920339
Heightened Def Con from 0.00920339 to 0.00920339
Heightened Def Con from 0.00920339 to 0.00920339
Heightened Def Con from 0.00920339 to 0.00920339
Heightened Def Con from 0.00920339 ++++to 0.00920339
Heightened Def Con from 0.00920339 to 0.00920339
Heightened Def Con from 0.00920339 to 0.00920339
Heightened Def Con from 0.00920339 +to 0.00920339
Heightened Def Con from 0.00920339 +to 0.00920339
Heightened Def Con from 0.00920339 ++to 0.00920339
Heightened Def Con from 0.00920339 +++to 0.00920339
Heightened Def Con from 0.00920339 to 0.00920339
Heightened Def Con from 0.00920339 to 0.00920339
Heightened Def Con from 0.00920339 to 0.00920339
Heightened Def Con from 0.00920339 +to 0.00920339
Heightened Def Con from 0.00920339 to 0.00920339
Heightened Def Con from 0.00920339 ++to 0.00920339
Heightened Def Con from 0.00920339 ++to 0.00920339
Heightened Def Con from 0.00920339 to 0.00920339
Heightened Def Con from 0.00920339 to 0.00920339
Heightened Def Con from 0.00920339 to 0.00920339
Heightened Def Con from 0.00920339 to 0.00920339
Heightened Def Con from 0.00920339 +to 0.00920339
Heightened Def Con from 0.00920339 ++to 0.00920339
Heightened Def Con from 0.00920339 to 0.00920339
Heightened Def Con from 0.00920339 to 0.00920339
Heightened Def Con from 0.00920339 ++to 0.00920339
Heightened Def Con from 0.00920339 ++to 0.00920339
Heightened Def Con from 0.00920339 to 0.00920339
Heightened Def Con from 0.00920339 to 0.00920339
Heightened Def Con from 0.00920339 to 0.00920339
Heightened Def Con from 0.00920339 to 0.00920339
Heightened Def Con from 0.00920339 +++to 0.00920339
Heightened Def Con from 0.00920339 ++to 0.00920339
Heightened Def Con from 0.00920339 to 0.00920339
Heightened Def Con from 0.00920339 to 0.00920339
Heightened Def Con from 0.00920339 to 0.00920339
Heightened Def Con from 0.00920339 to 0.00920339
Heightened Def Con from 0.0092034 to 0.0092034
Heightened Def Con from 0.0092034 to 0.0092034
Heightened Def Con from 0.0092034 to 0.0092034
Heightened Def Con from 0.0092034 to 0.0092034
Heightened Def Con from 0.0092034 ++to 0.0092034
Heightened Def Con from 0.0092034 ++to 0.0092034
Heightened Def Con from 0.0092034 ++to 0.0092034
Heightened Def Con from 0.0092034 ++to 0.0092034
Heightened Def Con from 0.0092034 to 0.0092034
Heightened Def Con from 0.0092034 +to 0.0092034
Heightened Def Con from 0.0092034 to 0.0092034
Heightened Def Con from 0.0092034 to 0.0092034
Heightened Def Con from 0.0092034 to 0.0092034
Heightened Def Con from 0.0092034 to 0.00920341
Heightened Def Con from 0.00920341 +to 0.00920341
Heightened Def Con from 0.00920341 to 0.00920341
Heightened Def Con from 0.00920341 +to 0.00920341
Heightened Def Con from 0.00920341 to 0.00920341
Heightened Def Con from 0.00920341 +to 0.00920341
Heightened Def Con from 0.00920341 to 0.00920341
Heightened Def Con from 0.00920341 to 0.00920341
Heightened Def Con from 0.00920341 ++to 0.00920341
Heightened Def Con from 0.00920341 to 0.00920341
Heightened Def Con from 0.00920341 +to 0.00920341
Heightened Def Con from 0.00920341 +to 0.00920341
Heightened Def Con from 0.00920341 ++to 0.00920341
Heightened Def Con from 0.00920341 to 0.00920341
Heightened Def Con from 0.00920341 to 0.00920341
Heightened Def Con from 0.00920341 +to 0.00920341
Heightened Def Con from 0.00920341 to 0.00920341
Heightened Def Con from 0.00920341 to 0.00920341
Heightened Def Con from 0.00920341 to 0.00920341
Heightened Def Con from 0.00920341 ++to 0.00920341
Heightened Def Con from 0.00920341 +to 0.00920341
Heightened Def Con from 0.00920341 ++to 0.00920341
Heightened Def Con from 0.00920341 to 0.00920341
Heightened Def Con from 0.00920341 to 0.00920341
Heightened Def Con from 0.00920341 ++to 0.00920341
Heightened Def Con from 0.00920341 to 0.00920341
Heightened Def Con from 0.00920341 to 0.00920341
Heightened Def Con from 0.00920341 ++to 0.00920341
Heightened Def Con from 0.00920341 to 0.00920341
Heightened Def Con from 0.00920341 +to 0.00920341
Heightened Def Con from 0.00920341 to 0.00920342
Heightened Def Con from 0.00920342 to 0.00920342
Heightened Def Con from 0.00920342 to 0.00920342
Heightened Def Con from 0.00920342 +++to 0.00920342
Heightened Def Con from 0.00920342 to 0.00920342
Heightened Def Con from 0.00920342 to 0.00920342
Heightened Def Con from 0.00920342 to 0.00920342
Heightened Def Con from 0.00920342 ++to 0.00920342
Heightened Def Con from 0.00920342 to 0.00920342
Heightened Def Con from 0.00920342 +++to 0.00920342
Heightened Def Con from 0.00920342 to 0.00920342
Heightened Def Con from 0.00920342 +++++to 0.00920342
Heightened Def Con from 0.00920342 ++++to 0.00920342
Heightened Def Con from 0.00920342 to 0.00920342
Heightened Def Con from 0.00920342 +to 0.00920342
Heightened Def Con from 0.00920342 +to 0.00920342
Heightened Def Con from 0.00920342 to 0.00920342
Heightened Def Con from 0.00920342 to 0.00920342
Heightened Def Con from 0.00920342 +to 0.00920342
Heightened Def Con from 0.00920342 to 0.00920343
Heightened Def Con from 0.00920343 to 0.00920343
Heightened Def Con from 0.00920343 to 0.00920343
Heightened Def Con from 0.00920343 to 0.00920343
Heightened Def Con from 0.00920343 +++++to 0.00920343
Heightened Def Con from 0.00920343 to 0.00920343
Heightened Def Con from 0.00920343 to 0.00920343
Heightened Def Con from 0.00920343 +to 0.00920343
Heightened Def Con from 0.00920343 ++to 0.00920343
Heightened Def Con from 0.00920343 ++to 0.00920343
Heightened Def Con from 0.00920343 +++++to 0.00920343
Heightened Def Con from 0.00920343 to 0.00920343
Heightened Def Con from 0.00920343 ++to 0.00920343
Heightened Def Con from 0.00920343 ++++to 0.00920343
Heightened Def Con from 0.00920343 +to 0.00920343
Heightened Def Con from 0.00920343 ++to 0.00920343
Heightened Def Con from 0.00920343 +to 0.00920343
Heightened Def Con from 0.00920343 to 0.00920343
Heightened Def Con from 0.00920343 ++to 0.00920343
Heightened Def Con from 0.00920343 to 0.00920343
Heightened Def Con from 0.00920343 ++to 0.00920343
Heightened Def Con from 0.00920343 +to 0.00920343
Heightened Def Con from 0.00920343 +to 0.00920343
Heightened Def Con from 0.00920343 ++to 0.00920343
Heightened Def Con from 0.00920343 ++to 0.00920343
Heightened Def Con from 0.00920343 ++to 0.00920343
Heightened Def Con from 0.00920343 to 0.00920343
Heightened Def Con from 0.00920343 ++to 0.00920343
Heightened Def Con from 0.00920343 +++to 0.00920343
Heightened Def Con from 0.00920343 +to 0.00920343
Heightened Def Con from 0.00920344 ++++to 0.00920344
Heightened Def Con from 0.00920344 ++to 0.00920344
Heightened Def Con from 0.00920344 ++to 0.00920345
Heightened Def Con from 0.00920345 ++to 0.00920345
Heightened Def Con from 0.00920345 ++to 0.00920345
Heightened Def Con from 0.00920345 ++to 0.00920345
Heightened Def Con from 0.00920345 to 0.00920345
Heightened Def Con from 0.00920345 +to 0.00920345
Heightened Def Con from 0.00920345 to 0.00920345
Heightened Def Con from 0.00920345 +to 0.00920345
Heightened Def Con from 0.00920345 ++to 0.00920346
Heightened Def Con from 0.00920346 ++to 0.00920346
Heightened Def Con from 0.00920346 +++to 0.00920346
Heightened Def Con from 0.00920346 ++to 0.00920346
Heightened Def Con from 0.00920346 +++++to 0.00920346
Heightened Def Con from 0.00920346 to 0.00920346
Heightened Def Con from 0.00920346 ++to 0.00920346
Heightened Def Con from 0.00920346 ++to 0.00920346
Heightened Def Con from 0.00920346 ++to 0.00920346
Heightened Def Con from 0.00920346 +++to 0.00920346
Heightened Def Con from 0.00920346 to 0.00920346
Heightened Def Con from 0.00920346 +to 0.00920346
Heightened Def Con from 0.00920346 +to 0.00920346
Heightened Def Con from 0.00920346 to 0.00920346
Heightened Def Con from 0.00920346 to 0.00920346
Heightened Def Con from 0.00920346 +++to 0.00920346
Heightened Def Con from 0.00920346 +++to 0.00920346
Heightened Def Con from 0.00920346 +++to 0.00920346
Heightened Def Con from 0.00920346 +to 0.00920346
Heightened Def Con from 0.00920346 to 0.00920346
Heightened Def Con from 0.00920346 to 0.00920346
Heightened Def Con from 0.00920346 +to 0.00920346
Heightened Def Con from 0.00920347 to 0.00920347
Heightened Def Con from 0.00920347 +to 0.00920347
Heightened Def Con from 0.00920347 +to 0.00920347
Heightened Def Con from 0.00920347 to 0.00920347
Heightened Def Con from 0.00920347 +++to 0.00920347
Heightened Def Con from 0.00920347 +++to 0.00920347
Heightened Def Con from 0.00920347 +to 0.00920347
Heightened Def Con from 0.00920347 +to 0.00920347
Heightened Def Con from 0.00920347 ++++++to 0.00920347
Heightened Def Con from 0.00920347 ++to 0.00920347
Heightened Def Con from 0.00920347 +++to 0.00920347
Heightened Def Con from 0.00920347 to 0.00920348
Heightened Def Con from 0.00920348 to 0.00920348
Heightened Def Con from 0.00920348 to 0.00920348
Heightened Def Con from 0.00920348 to 0.00920348
Heightened Def Con from 0.00920348 to 0.00920348
Heightened Def Con from 0.00920348 +to 0.00920348
Heightened Def Con from 0.00920348 +to 0.00920348
Heightened Def Con from 0.00920348 to 0.00920348
Heightened Def Con from 0.00920348 to 0.00920348
Heightened Def Con from 0.00920348 to 0.00920348
Heightened Def Con from 0.00920348 to 0.00920348
Heightened Def Con from 0.00920348 to 0.00920348
Heightened Def Con from 0.00920348 ++to 0.00920348
Heightened Def Con from 0.00920348 +to 0.00920348
Heightened Def Con from 0.00920348 ++to 0.00920348
Heightened Def Con from 0.00920348 ++++++to 0.00920348
Heightened Def Con from 0.00920348 +to 0.00920348
Heightened Def Con from 0.00920348 ++to 0.00920348
Heightened Def Con from 0.00920348 to 0.00920348
Heightened Def Con from 0.00920348 to 0.00920348
Heightened Def Con from 0.00920348 to 0.00920348
Heightened Def Con from 0.00920348 to 0.00920348
Heightened Def Con from 0.00920348 +to 0.00920348
Heightened Def Con from 0.00920348 ++++to 0.00920348
Heightened Def Con from 0.00920348 to 0.00920348
Heightened Def Con from 0.00920348 to 0.00920348
Heightened Def Con from 0.00920348 to 0.00920348
Heightened Def Con from 0.00920348 ++++++to 0.00920348
Heightened Def Con from 0.00920348 +++to 0.00920348
Heightened Def Con from 0.00920348 ++to 0.00920348
Heightened Def Con from 0.00920348 to 0.00920348
Heightened Def Con from 0.00920348 +to 0.00920348
Heightened Def Con from 0.00920348 +++to 0.00920348
Heightened Def Con from 0.00920348 +++++to 0.00920348
Heightened Def Con from 0.00920348 to 0.00920348
Heightened Def Con from 0.00920348 to 0.00920348
Heightened Def Con from 0.00920348 to 0.00920348
Heightened Def Con from 0.00920348 to 0.00920348
Heightened Def Con from 0.00920348 +to 0.00920348
Heightened Def Con from 0.00920348 to 0.00920348
Heightened Def Con from 0.00920348 ++++to 0.00920348
Heightened Def Con from 0.00920348 +to 0.00920349
Heightened Def Con from 0.00920349 to 0.00920349
Heightened Def Con from 0.00920349 +++to 0.00920349
Heightened Def Con from 0.00920349 +++to 0.00920349
Heightened Def Con from 0.00920349 to 0.00920349
Heightened Def Con from 0.00920349 to 0.00920349
Heightened Def Con from 0.00920349 to 0.00920349
Heightened Def Con from 0.00920349 to 0.00920349
Heightened Def Con from 0.00920349 +to 0.00920349
Heightened Def Con from 0.00920349 to 0.00920349
Heightened Def Con from 0.00920349 ++to 0.00920349
Heightened Def Con from 0.00920349 +++to 0.00920349
Heightened Def Con from 0.00920349 ++to 0.00920349
Heightened Def Con from 0.00920349 ++to 0.00920349
Heightened Def Con from 0.00920349 +to 0.00920349
Heightened Def Con from 0.00920349 +to 0.00920349
Heightened Def Con from 0.00920349 +to 0.00920349
Heightened Def Con from 0.00920349 to 0.00920349
Heightened Def Con from 0.00920349 to 0.00920349
Heightened Def Con from 0.00920349 to 0.00920349
Heightened Def Con from 0.00920349 +to 0.00920349
Heightened Def Con from 0.00920349 to 0.00920349
Heightened Def Con from 0.00920349 ++to 0.00920349
Heightened Def Con from 0.00920349 to 0.00920349
Heightened Def Con from 0.00920349 to 0.00920349
Heightened Def Con from 0.00920349 to 0.00920349
Heightened Def Con from 0.00920349 ++++++to 0.00920349
Heightened Def Con from 0.00920349 to 0.00920349
Heightened Def Con from 0.00920349 to 0.00920349
Heightened Def Con from 0.00920349 to 0.00920349
Heightened Def Con from 0.00920349 to 0.00920349
Heightened Def Con from 0.00920349 to 0.00920349
Heightened Def Con from 0.00920349 to 0.00920349
Heightened Def Con from 0.00920349 to 0.00920349
Heightened Def Con from 0.00920349 ++to 0.00920349
Heightened Def Con from 0.00920349 +to 0.0092035
Heightened Def Con from 0.0092035 +to 0.0092035
Heightened Def Con from 0.0092035 to 0.0092035
Heightened Def Con from 0.0092035 +to 0.0092035
Heightened Def Con from 0.0092035 +to 0.0092035
Heightened Def Con from 0.0092035 +to 0.0092035
Heightened Def Con from 0.0092035 ++to 0.0092035
Heightened Def Con from 0.0092035 to 0.0092035
Heightened Def Con from 0.0092035 ++to 0.0092035
Heightened Def Con from 0.0092035 to 0.0092035
Heightened Def Con from 0.0092035 +++to 0.0092035
Heightened Def Con from 0.0092035 +to 0.0092035
Heightened Def Con from 0.0092035 to 0.0092035
Heightened Def Con from 0.0092035 ++to 0.0092035
Heightened Def Con from 0.0092035 +to 0.0092035
Heightened Def Con from 0.0092035 to 0.0092035
Heightened Def Con from 0.0092035 +++++to 0.0092035
Heightened Def Con from 0.0092035 +to 0.0092035
Heightened Def Con from 0.0092035 to 0.0092035
Heightened Def Con from 0.0092035 +++++++++to 0.0092035
Heightened Def Con from 0.0092035 +++to 0.0092035
Heightened Def Con from 0.0092035 ++to 0.00920351
Heightened Def Con from 0.00920351 to 0.00920351
Heightened Def Con from 0.00920351 to 0.00920351
Heightened Def Con from 0.00920351 ++++++to 0.00920351
Heightened Def Con from 0.00920351 to 0.00920351
Heightened Def Con from 0.00920351 ++++to 0.00920351
Heightened Def Con from 0.00920351 ++to 0.00920351
Heightened Def Con from 0.00920351 to 0.00920351
Heightened Def Con from 0.00920351 to 0.00920351
Heightened Def Con from 0.00920351 to 0.00920351
Heightened Def Con from 0.00920351 +to 0.00920351
Heightened Def Con from 0.00920351 to 0.00920351
Heightened Def Con from 0.00920351 ++++++to 0.00920351
Heightened Def Con from 0.00920351 +to 0.00920351
Heightened Def Con from 0.00920351 +++to 0.00920351
Heightened Def Con from 0.00920351 +++++to 0.00920351
Heightened Def Con from 0.00920351 to 0.00920351
Heightened Def Con from 0.00920351 to 0.00920351
Heightened Def Con from 0.00920351 +to 0.00920351
Heightened Def Con from 0.00920351 +++to 0.00920351
Heightened Def Con from 0.00920351 +to 0.00920351
Heightened Def Con from 0.00920351 ++to 0.00920351
Heightened Def Con from 0.00920351 ++++to 0.00920352
Heightened Def Con from 0.00920352 +to 0.00920352
Heightened Def Con from 0.00920352 ++++to 0.00920352
Heightened Def Con from 0.00920352 +to 0.00920352
Heightened Def Con from 0.00920352 to 0.00920352
Heightened Def Con from 0.00920352 to 0.00920353
Heightened Def Con from 0.00920353 to 0.00920353
Heightened Def Con from 0.00920353 to 0.00920353
Heightened Def Con from 0.00920353 ++to 0.00920353
Heightened Def Con from 0.00920353 to 0.00920353
Heightened Def Con from 0.00920353 to 0.00920353
Heightened Def Con from 0.00920353 +to 0.00920353
Heightened Def Con from 0.00920353 to 0.00920353
Heightened Def Con from 0.00920353 to 0.00920353
Heightened Def Con from 0.00920353 ++to 0.00920353
Heightened Def Con from 0.00920353 +to 0.00920353
Heightened Def Con from 0.00920353 ++to 0.00920353
Heightened Def Con from 0.00920353 +to 0.00920353
Heightened Def Con from 0.00920353 ++to 0.00920353
Heightened Def Con from 0.00920353 ++to 0.00920353
Heightened Def Con from 0.00920353 +to 0.00920353
Heightened Def Con from 0.00920353 +++to 0.00920353
Heightened Def Con from 0.00920353 to 0.00920353
Heightened Def Con from 0.00920353 +++to 0.00920353
Heightened Def Con from 0.00920353 ++to 0.00920353
Heightened Def Con from 0.00920353 to 0.00920353
Heightened Def Con from 0.00920353 +++to 0.00920353
Heightened Def Con from 0.00920353 +++to 0.00920353
Heightened Def Con from 0.00920353 to 0.00920354
Heightened Def Con from 0.00920354 +to 0.00920354
Heightened Def Con from 0.00920354 ++to 0.00920354
Heightened Def Con from 0.00920354 +++to 0.00920354
Heightened Def Con from 0.00920354 ++to 0.00920354
Heightened Def Con from 0.00920354 to 0.00920354
Heightened Def Con from 0.00920354 +to 0.00920354
Heightened Def Con from 0.00920354 +++to 0.00920354
Heightened Def Con from 0.00920354 to 0.00920354
Heightened Def Con from 0.00920354 to 0.00920354
Heightened Def Con from 0.00920354 +to 0.00920354
Heightened Def Con from 0.00920354 to 0.00920354
Heightened Def Con from 0.00920355 +to 0.00920355
Heightened Def Con from 0.00920355 +to 0.00920355
Heightened Def Con from 0.00920355 to 0.00920355
Heightened Def Con from 0.00920355 to 0.00920355
Heightened Def Con from 0.00920355 ++to 0.00920355
Heightened Def Con from 0.00920355 to 0.00920355
Heightened Def Con from 0.00920355 ++to 0.00920355
Heightened Def Con from 0.00920355 to 0.00920355
Heightened Def Con from 0.00920355 to 0.00920355
Heightened Def Con from 0.00920355 +to 0.00920355
Heightened Def Con from 0.00920355 to 0.00920355
Heightened Def Con from 0.00920355 to 0.00920355
Heightened Def Con from 0.00920355 to 0.00920355
Heightened Def Con from 0.00920355 ++++to 0.00920355
Heightened Def Con from 0.00920356 to 0.00920356
Heightened Def Con from 0.00920356 to 0.00920356
Heightened Def Con from 0.00920356 ++to 0.00920356
Heightened Def Con from 0.00920356 to 0.00920356
Heightened Def Con from 0.00920356 ++++to 0.00920356
Heightened Def Con from 0.00920356 to 0.00920356
Heightened Def Con from 0.00920356 to 0.00920356
Heightened Def Con from 0.00920356 to 0.00920356
Heightened Def Con from 0.00920356 to 0.00920356
Heightened Def Con from 0.00920356 to 0.00920357
Heightened Def Con from 0.00920357 to 0.00920357
Heightened Def Con from 0.00920357 to 0.00920357
Heightened Def Con from 0.00920357 to 0.00920357
Heightened Def Con from 0.00920357 to 0.00920357
Heightened Def Con from 0.00920357 to 0.00920357
Heightened Def Con from 0.00920357 to 0.00920357
Heightened Def Con from 0.00920357 to 0.00920357
Heightened Def Con from 0.00920358 ++to 0.00920358
Heightened Def Con from 0.00920358 ++to 0.00920358
Heightened Def Con from 0.00920358 ++to 0.00920358
Heightened Def Con from 0.00920358 to 0.00920358
Heightened Def Con from 0.00920358 to 0.00920358
Heightened Def Con from 0.00920358 to 0.00920358
Heightened Def Con from 0.00920358 to 0.00920358
Heightened Def Con from 0.00920358 to 0.00920358
Heightened Def Con from 0.00920358 to 0.00920358
Heightened Def Con from 0.00920358 to 0.00920358
Heightened Def Con from 0.00920358 to 0.00920358
Heightened Def Con from 0.00920358 ++to 0.00920358
Heightened Def Con from 0.00920358 +to 0.00920358
Heightened Def Con from 0.00920358 to 0.00920358
Heightened Def Con from 0.00920358 +++to 0.00920358
Heightened Def Con from 0.00920358 to 0.00920358
Heightened Def Con from 0.00920358 to 0.00920358
Heightened Def Con from 0.00920358 +++++to 0.00920358
Heightened Def Con from 0.00920358 to 0.00920358
Heightened Def Con from 0.00920358 to 0.00920358
Heightened Def Con from 0.00920358 to 0.00920358
Heightened Def Con from 0.00920358 +++to 0.00920358
Heightened Def Con from 0.00920358 +++to 0.00920358
Heightened Def Con from 0.00920358 to 0.00920358
Heightened Def Con from 0.00920358 +++++to 0.00920358
Heightened Def Con from 0.00920358 +++to 0.00920358
Heightened Def Con from 0.00920358 to 0.00920358
Heightened Def Con from 0.00920358 ++++++to 0.00920358
Heightened Def Con from 0.00920358 to 0.00920358
Heightened Def Con from 0.00920358 to 0.00920358
Heightened Def Con from 0.00920359 to 0.00920359
Heightened Def Con from 0.00920359 +++to 0.00920359
Heightened Def Con from 0.00920359 ++to 0.00920359
Heightened Def Con from 0.00920359 to 0.00920359
Heightened Def Con from 0.00920359 to 0.00920359
Heightened Def Con from 0.00920359 ++to 0.00920359
Heightened Def Con from 0.00920359 +to 0.00920359
Heightened Def Con from 0.00920359 to 0.00920359
Heightened Def Con from 0.00920359 to 0.00920359
Heightened Def Con from 0.00920359 ++++to 0.00920359
Heightened Def Con from 0.00920359 to 0.00920359
Heightened Def Con from 0.00920359 to 0.00920359
Heightened Def Con from 0.00920359 to 0.00920359
Heightened Def Con from 0.00920359 to 0.00920359
Heightened Def Con from 0.00920359 to 0.00920359
Heightened Def Con from 0.00920359 to 0.00920359
Heightened Def Con from 0.00920359 +++++to 0.00920359
Heightened Def Con from 0.00920359 to 0.00920359
Heightened Def Con from 0.00920359 to 0.00920359
Heightened Def Con from 0.00920359 to 0.00920359
Heightened Def Con from 0.00920359 to 0.00920359
Heightened Def Con from 0.00920359 +to 0.00920359
Heightened Def Con from 0.00920359 +to 0.00920359
Heightened Def Con from 0.00920359 to 0.00920359
Heightened Def Con from 0.00920359 to 0.00920359
Heightened Def Con from 0.00920359 to 0.00920359
Heightened Def Con from 0.00920359 to 0.00920359
Heightened Def Con from 0.00920359 to 0.00920359
Heightened Def Con from 0.00920359 to 0.00920359
Heightened Def Con from 0.00920359 to 0.00920359
Heightened Def Con from 0.00920359 to 0.00920359
Heightened Def Con from 0.00920359 to 0.00920359
Heightened Def Con from 0.00920359 to 0.00920359
Heightened Def Con from 0.00920359 ++to 0.00920359
Heightened Def Con from 0.00920359 +to 0.00920359
Heightened Def Con from 0.00920359 to 0.00920359
Heightened Def Con from 0.00920359 to 0.00920359
Heightened Def Con from 0.00920359 to 0.00920359
Heightened Def Con from 0.00920359 ++to 0.00920359
Heightened Def Con from 0.00920359 to 0.00920359
Heightened Def Con from 0.00920359 to 0.00920359
Heightened Def Con from 0.00920359 +to 0.00920359
Heightened Def Con from 0.00920359 +++to 0.00920359
Heightened Def Con from 0.00920359 to 0.00920359
Heightened Def Con from 0.00920359 ++to 0.00920359
Heightened Def Con from 0.00920359 +to 0.00920359
Heightened Def Con from 0.00920359 +to 0.0092036
Heightened Def Con from 0.0092036 +to 0.0092036
Heightened Def Con from 0.0092036 to 0.0092036
Heightened Def Con from 0.0092036 ++to 0.0092036
Heightened Def Con from 0.0092036 to 0.0092036
Heightened Def Con from 0.0092036 ++++to 0.0092036
Heightened Def Con from 0.0092036 ++to 0.0092036
Heightened Def Con from 0.0092036 to 0.0092036
Heightened Def Con from 0.0092036 +++to 0.0092036
Heightened Def Con from 0.0092036 +++to 0.0092036
Heightened Def Con from 0.0092036 to 0.0092036
Heightened Def Con from 0.0092036 +to 0.0092036
Heightened Def Con from 0.0092036 ++to 0.0092036
Heightened Def Con from 0.0092036 +++to 0.0092036
Heightened Def Con from 0.0092036 +++to 0.0092036
Heightened Def Con from 0.0092036 to 0.0092036
Heightened Def Con from 0.0092036 +to 0.0092036
Heightened Def Con from 0.0092036 to 0.0092036
Heightened Def Con from 0.0092036 ++to 0.0092036
Heightened Def Con from 0.0092036 ++to 0.0092036
Heightened Def Con from 0.0092036 +to 0.0092036
Heightened Def Con from 0.0092036 to 0.0092036
Heightened Def Con from 0.0092036 to 0.0092036
Heightened Def Con from 0.0092036 ++to 0.0092036
Heightened Def Con from 0.0092036 to 0.0092036
Heightened Def Con from 0.0092036 to 0.0092036
Heightened Def Con from 0.0092036 +to 0.0092036
Heightened Def Con from 0.0092036 +++to 0.0092036
Heightened Def Con from 0.0092036 ++to 0.0092036
Heightened Def Con from 0.0092036 to 0.0092036
Heightened Def Con from 0.0092036 +++to 0.0092036
Heightened Def Con from 0.0092036 ++to 0.0092036
Heightened Def Con from 0.0092036 +++to 0.0092036
Heightened Def Con from 0.0092036 +++to 0.0092036
Heightened Def Con from 0.0092036 +to 0.0092036
Heightened Def Con from 0.0092036 to 0.0092036
Heightened Def Con from 0.0092036 +to 0.0092036
Heightened Def Con from 0.0092036 to 0.00920361
Heightened Def Con from 0.00920361 to 0.00920361
Heightened Def Con from 0.00920361 to 0.00920361
Heightened Def Con from 0.00920361 to 0.00920361
Heightened Def Con from 0.00920361 ++to 0.00920361
Heightened Def Con from 0.00920361 to 0.00920361
Heightened Def Con from 0.00920361 +++to 0.00920361
Heightened Def Con from 0.00920361 ++++++++++to 0.00920361
Heightened Def Con from 0.00920361 ++to 0.00920361
Heightened Def Con from 0.00920361 +++to 0.00920361
Heightened Def Con from 0.00920361 ++to 0.00920361
Heightened Def Con from 0.00920361 +++++to 0.00920361
Heightened Def Con from 0.00920361 ++to 0.00920361
Heightened Def Con from 0.00920361 +++++to 0.00920361
Heightened Def Con from 0.00920361 +++++to 0.00920361
Heightened Def Con from 0.00920361 ++to 0.00920361
Heightened Def Con from 0.00920361 to 0.00920361
Heightened Def Con from 0.00920361 +++++to 0.00920361
Heightened Def Con from 0.00920362 to 0.00920362
Heightened Def Con from 0.00920362 to 0.00920362
Heightened Def Con from 0.00920362 to 0.00920362
Heightened Def Con from 0.00920362 to 0.00920362
Heightened Def Con from 0.00920362 +to 0.00920362
Heightened Def Con from 0.00920362 to 0.00920362
Heightened Def Con from 0.00920362 +++to 0.00920362
Heightened Def Con from 0.00920362 ++to 0.00920362
Heightened Def Con from 0.00920362 +to 0.00920362
Heightened Def Con from 0.00920362 +to 0.00920362
Heightened Def Con from 0.00920362 to 0.00920362
Heightened Def Con from 0.00920362 to 0.00920362
Heightened Def Con from 0.00920362 ++to 0.00920362
Heightened Def Con from 0.00920362 to 0.00920362
Heightened Def Con from 0.00920362 to 0.00920362
Heightened Def Con from 0.00920362 ++to 0.00920362
Heightened Def Con from 0.00920362 ++to 0.00920362
Heightened Def Con from 0.00920362 ++to 0.00920362
Heightened Def Con from 0.00920362 ++++++to 0.00920362
Heightened Def Con from 0.00920362 +++to 0.00920362
Heightened Def Con from 0.00920362 ++to 0.00920362
Heightened Def Con from 0.00920362 to 0.00920362
Heightened Def Con from 0.00920362 to 0.00920363
Heightened Def Con from 0.00920363 to 0.00920363
Heightened Def Con from 0.00920363 to 0.00920363
Heightened Def Con from 0.00920363 ++++to 0.00920363
Heightened Def Con from 0.00920363 ++to 0.00920363
Heightened Def Con from 0.00920363 +++to 0.00920363
Heightened Def Con from 0.00920363 +++to 0.00920363
Heightened Def Con from 0.00920363 to 0.00920363
Heightened Def Con from 0.00920363 to 0.00920363
Heightened Def Con from 0.00920363 ++to 0.00920363
Heightened Def Con from 0.00920363 to 0.00920363
Heightened Def Con from 0.00920363 to 0.00920363
Heightened Def Con from 0.00920363 ++to 0.00920363
Heightened Def Con from 0.00920363 ++to 0.00920363
Heightened Def Con from 0.00920363 ++to 0.00920363
Heightened Def Con from 0.00920363 ++to 0.00920363
Heightened Def Con from 0.00920363 to 0.00920363
Heightened Def Con from 0.00920363 +to 0.00920364
Heightened Def Con from 0.00920364 +to 0.00920364
Heightened Def Con from 0.00920364 ++++to 0.00920364
Heightened Def Con from 0.00920364 ++to 0.00920364
Heightened Def Con from 0.00920364 to 0.00920364
Heightened Def Con from 0.00920364 to 0.00920364
Heightened Def Con from 0.00920364 to 0.00920364
Heightened Def Con from 0.00920365 +to 0.00920365
Heightened Def Con from 0.00920365 +++to 0.00920365
Heightened Def Con from 0.00920365 +++to 0.00920365
Heightened Def Con from 0.00920365 ++to 0.00920365
Heightened Def Con from 0.00920365 +++to 0.00920365
Heightened Def Con from 0.00920365 to 0.00920365
Heightened Def Con from 0.00920365 to 0.00920365
Heightened Def Con from 0.00920365 +++to 0.00920365
Heightened Def Con from 0.00920365 +to 0.00920365
Heightened Def Con from 0.00920365 +++to 0.00920365
Heightened Def Con from 0.00920365 +to 0.00920365
Heightened Def Con from 0.00920365 ++++to 0.00920365
Heightened Def Con from 0.00920365 +++++to 0.00920365
Heightened Def Con from 0.00920365 +to 0.00920365
Heightened Def Con from 0.00920365 to 0.00920365
Heightened Def Con from 0.00920365 to 0.00920365
Heightened Def Con from 0.00920366 to 0.00920366
Heightened Def Con from 0.00920366 ++to 0.00920366
Heightened Def Con from 0.00920366 to 0.00920366
Heightened Def Con from 0.00920366 to 0.00920366
Heightened Def Con from 0.00920366 to 0.00920366
Heightened Def Con from 0.00920366 +++to 0.00920366
Heightened Def Con from 0.00920366 ++to 0.00920366
Heightened Def Con from 0.00920366 to 0.00920366
Heightened Def Con from 0.00920366 to 0.00920366
Heightened Def Con from 0.00920366 +to 0.00920366
Heightened Def Con from 0.00920366 to 0.00920366
Heightened Def Con from 0.00920366 to 0.00920366
Heightened Def Con from 0.00920366 to 0.00920367
Heightened Def Con from 0.00920367 to 0.00920367
Heightened Def Con from 0.00920367 to 0.00920367
Heightened Def Con from 0.00920367 to 0.00920367
Heightened Def Con from 0.00920367 to 0.00920367
Heightened Def Con from 0.00920367 to 0.00920367
Heightened Def Con from 0.00920367 to 0.00920367
Heightened Def Con from 0.00920367 to 0.00920367
Heightened Def Con from 0.00920367 +++to 0.00920367
Heightened Def Con from 0.00920367 to 0.00920367
Heightened Def Con from 0.00920367 to 0.00920367
Heightened Def Con from 0.00920367 to 0.00920367
Heightened Def Con from 0.00920367 to 0.00920367
Heightened Def Con from 0.00920367 to 0.00920367
Heightened Def Con from 0.00920367 to 0.00920367
Heightened Def Con from 0.00920367 to 0.00920367
Heightened Def Con from 0.00920367 to 0.00920367
Heightened Def Con from 0.00920367 to 0.00920367
Heightened Def Con from 0.00920367 to 0.00920367
Heightened Def Con from 0.00920367 +++to 0.00920368
Heightened Def Con from 0.00920368 to 0.00920368
Heightened Def Con from 0.00920368 to 0.00920368
Heightened Def Con from 0.00920368 to 0.00920368
Heightened Def Con from 0.00920368 +to 0.00920368
Heightened Def Con from 0.00920368 to 0.00920368
Heightened Def Con from 0.00920368 to 0.00920368
Heightened Def Con from 0.00920368 to 0.00920368
Heightened Def Con from 0.00920368 to 0.00920368
Heightened Def Con from 0.00920368 to 0.00920368
Heightened Def Con from 0.00920368 +++++to 0.00920368
Heightened Def Con from 0.00920368 +++to 0.00920368
Heightened Def Con from 0.00920368 to 0.00920368
Heightened Def Con from 0.00920368 to 0.00920368
Heightened Def Con from 0.00920368 +++to 0.00920368
Heightened Def Con from 0.00920368 +to 0.00920368
Heightened Def Con from 0.00920368 ++++++to 0.00920368
Heightened Def Con from 0.00920368 to 0.00920368
Heightened Def Con from 0.00920368 +to 0.00920368
Heightened Def Con from 0.00920368 to 0.00920368
Heightened Def Con from 0.00920368 to 0.00920368
Heightened Def Con from 0.00920368 to 0.00920368
Heightened Def Con from 0.00920368 to 0.00920368
Heightened Def Con from 0.00920368 to 0.00920368
Heightened Def Con from 0.00920369 to 0.00920369
Heightened Def Con from 0.00920369 to 0.00920369
Heightened Def Con from 0.00920369 ++++to 0.00920369
Heightened Def Con from 0.00920369 to 0.00920369
Heightened Def Con from 0.00920369 to 0.00920369
Heightened Def Con from 0.0092037 ++to 0.0092037
Heightened Def Con from 0.0092037 +to 0.0092037
Heightened Def Con from 0.0092037 +to 0.0092037
Heightened Def Con from 0.0092037 ++++to 0.0092037
Heightened Def Con from 0.0092037 ++to 0.0092037
Heightened Def Con from 0.0092037 to 0.0092037
Heightened Def Con from 0.0092037 +to 0.0092037
Heightened Def Con from 0.0092037 +to 0.0092037
Heightened Def Con from 0.0092037 ++to 0.0092037
Heightened Def Con from 0.0092037 to 0.0092037
Heightened Def Con from 0.0092037 +to 0.0092037
Heightened Def Con from 0.0092037 +to 0.0092037
Heightened Def Con from 0.0092037 +to 0.0092037
Heightened Def Con from 0.0092037 +to 0.0092037
Heightened Def Con from 0.0092037 to 0.0092037
Heightened Def Con from 0.0092037 +to 0.0092037
Heightened Def Con from 0.0092037 +to 0.0092037
Heightened Def Con from 0.0092037 to 0.0092037
Heightened Def Con from 0.0092037 to 0.0092037
Heightened Def Con from 0.0092037 ++to 0.0092037
Heightened Def Con from 0.0092037 to 0.00920371
Heightened Def Con from 0.00920371 ++to 0.00920371
Heightened Def Con from 0.00920371 to 0.00920371
Heightened Def Con from 0.00920371 ++to 0.00920371
Heightened Def Con from 0.00920371 ++to 0.00920371
Heightened Def Con from 0.00920371 to 0.00920371
Heightened Def Con from 0.00920371 +++to 0.00920371
Heightened Def Con from 0.00920371 to 0.00920371
Heightened Def Con from 0.00920371 to 0.00920371
Heightened Def Con from 0.00920372 to 0.00920372
Heightened Def Con from 0.00920372 to 0.00920372
Heightened Def Con from 0.00920372 ++to 0.00920372
Heightened Def Con from 0.00920372 ++to 0.00920373
Heightened Def Con from 0.00920373 to 0.00920373
Heightened Def Con from 0.00920373 +++to 0.00920373
Heightened Def Con from 0.00920373 ++++to 0.00920373
Heightened Def Con from 0.00920373 ++to 0.00920373
Heightened Def Con from 0.00920373 +to 0.00920373
Heightened Def Con from 0.00920373 ++to 0.00920373
Heightened Def Con from 0.00920373 +to 0.00920373
Heightened Def Con from 0.00920373 to 0.00920373
Heightened Def Con from 0.00920373 +to 0.00920373
Heightened Def Con from 0.00920373 to 0.00920373
Heightened Def Con from 0.00920373 +to 0.00920373
Heightened Def Con from 0.00920373 +++++to 0.00920373
Heightened Def Con from 0.00920373 +++to 0.00920373
Heightened Def Con from 0.00920373 to 0.00920373
Heightened Def Con from 0.00920373 +++to 0.00920373
Heightened Def Con from 0.00920373 ++to 0.00920373
Heightened Def Con from 0.00920373 ++++++to 0.00920373
Heightened Def Con from 0.00920373 +to 0.00920373
Heightened Def Con from 0.00920373 ++++to 0.00920373
Heightened Def Con from 0.00920373 ++to 0.00920373
Heightened Def Con from 0.00920373 +++to 0.00920373
Heightened Def Con from 0.00920373 +++to 0.00920373
Heightened Def Con from 0.00920373 +++++to 0.00920373
Heightened Def Con from 0.00920373 +++++to 0.00920373
Heightened Def Con from 0.00920373 +++++to 0.00920373
Heightened Def Con from 0.00920373 +++++to 0.00920373
Heightened Def Con from 0.00920373 to 0.00920373
Heightened Def Con from 0.00920373 ++to 0.00920373
Heightened Def Con from 0.00920373 +to 0.00920373
Heightened Def Con from 0.00920373 ++to 0.00920373
Heightened Def Con from 0.00920373 ++to 0.00920373
Heightened Def Con from 0.00920373 ++++++to 0.00920373
Heightened Def Con from 0.00920373 ++++to 0.00920373
Heightened Def Con from 0.00920373 ++++to 0.00920373
Heightened Def Con from 0.00920374 ++to 0.00920374
Heightened Def Con from 0.00920374 ++to 0.00920374
Heightened Def Con from 0.00920374 ++to 0.00920374
Heightened Def Con from 0.00920374 ++to 0.00920374
Heightened Def Con from 0.00920374 to 0.00920374
Heightened Def Con from 0.00920374 to 0.00920374
Heightened Def Con from 0.00920374 to 0.00920374
Heightened Def Con from 0.00920374 to 0.00920374
Heightened Def Con from 0.00920374 +++to 0.00920374
Heightened Def Con from 0.00920374 +to 0.00920374
Heightened Def Con from 0.00920374 +++++to 0.00920374
Heightened Def Con from 0.00920374 to 0.00920374
Heightened Def Con from 0.00920374 to 0.00920374
Heightened Def Con from 0.00920374 to 0.00920375
Heightened Def Con from 0.00920375 to 0.00920375
Heightened Def Con from 0.00920375 to 0.00920375
Heightened Def Con from 0.00920375 +++to 0.00920375
Heightened Def Con from 0.00920375 +++to 0.00920375
Heightened Def Con from 0.00920375 +++to 0.00920375
Heightened Def Con from 0.00920375 +to 0.00920375
Heightened Def Con from 0.00920375 +++to 0.00920375
Heightened Def Con from 0.00920375 +++to 0.00920375
Heightened Def Con from 0.00920375 ++++++to 0.00920375
Heightened Def Con from 0.00920375 +to 0.00920375
Heightened Def Con from 0.00920375 to 0.00920375
Heightened Def Con from 0.00920376 to 0.00920376
Heightened Def Con from 0.00920376 +to 0.00920376
Heightened Def Con from 0.00920376 ++to 0.00920376
Heightened Def Con from 0.00920376 +++to 0.00920376
Heightened Def Con from 0.00920376 ++++to 0.00920376
Heightened Def Con from 0.00920376 ++++to 0.00920376
Heightened Def Con from 0.00920376 to 0.00920376
Heightened Def Con from 0.00920376 to 0.00920376
Heightened Def Con from 0.00920376 to 0.00920376
Heightened Def Con from 0.00920376 ++to 0.00920376
Heightened Def Con from 0.00920376 to 0.00920376
Heightened Def Con from 0.00920376 +to 0.00920376
Heightened Def Con from 0.00920376 to 0.00920376
Heightened Def Con from 0.00920376 to 0.00920376
Heightened Def Con from 0.00920376 to 0.00920376
Heightened Def Con from 0.00920376 to 0.00920376
Heightened Def Con from 0.00920376 to 0.00920376
Heightened Def Con from 0.00920376 to 0.00920376
Heightened Def Con from 0.00920376 to 0.00920376
Heightened Def Con from 0.00920377 to 0.00920377
Heightened Def Con from 0.00920377 to 0.00920377
Heightened Def Con from 0.00920377 to 0.00920377
Heightened Def Con from 0.00920377 ++to 0.00920377
Heightened Def Con from 0.00920377 to 0.00920377
Heightened Def Con from 0.00920377 ++to 0.00920377
Heightened Def Con from 0.00920377 to 0.00920377
Heightened Def Con from 0.00920377 to 0.00920377
Heightened Def Con from 0.00920377 to 0.00920377
Heightened Def Con from 0.00920377 to 0.00920377
Heightened Def Con from 0.00920377 +to 0.00920377
Heightened Def Con from 0.00920377 +++to 0.00920377
Heightened Def Con from 0.00920377 +++to 0.00920377
Heightened Def Con from 0.00920377 +to 0.00920377
Heightened Def Con from 0.00920377 to 0.00920377
Heightened Def Con from 0.00920377 to 0.00920377
Heightened Def Con from 0.00920378 +++to 0.00920378
Heightened Def Con from 0.00920378 to 0.00920378
Heightened Def Con from 0.00920378 to 0.00920378
Heightened Def Con from 0.00920378 to 0.00920378
Heightened Def Con from 0.00920378 to 0.00920378
Heightened Def Con from 0.00920378 to 0.00920378
Heightened Def Con from 0.00920378 to 0.00920378
Heightened Def Con from 0.00920378 to 0.00920378
Heightened Def Con from 0.00920378 to 0.00920378
Heightened Def Con from 0.00920378 to 0.00920378
Heightened Def Con from 0.00920378 to 0.00920378
Heightened Def Con from 0.00920378 to 0.00920378
Heightened Def Con from 0.00920378 to 0.00920378
Heightened Def Con from 0.00920378 to 0.00920378
Heightened Def Con from 0.00920378 to 0.00920378
Heightened Def Con from 0.00920378 to 0.00920378
Heightened Def Con from 0.00920378 to 0.00920378
Heightened Def Con from 0.00920378 +to 0.00920378
Heightened Def Con from 0.00920378 ++++to 0.00920378
Heightened Def Con from 0.00920378 to 0.00920378
Heightened Def Con from 0.00920378 +to 0.00920378
Heightened Def Con from 0.00920378 +to 0.00920378
Heightened Def Con from 0.00920378 to 0.00920378
Heightened Def Con from 0.00920378 +++to 0.00920379
Heightened Def Con from 0.00920379 to 0.00920379
Heightened Def Con from 0.00920379 +to 0.00920379
Heightened Def Con from 0.00920379 +to 0.00920379
Heightened Def Con from 0.00920379 +to 0.00920379
Heightened Def Con from 0.00920379 to 0.00920379
Heightened Def Con from 0.00920379 +to 0.00920379
Heightened Def Con from 0.00920379 ++to 0.00920379
Heightened Def Con from 0.00920379 +to 0.00920379
Heightened Def Con from 0.00920379 +++++to 0.00920379
Heightened Def Con from 0.00920379 to 0.00920379
Heightened Def Con from 0.00920379 +to 0.00920379
Heightened Def Con from 0.00920379 +to 0.00920379
Heightened Def Con from 0.00920379 to 0.00920379
Heightened Def Con from 0.00920379 +++to 0.00920379
Heightened Def Con from 0.00920379 +++to 0.00920379
Heightened Def Con from 0.00920379 to 0.00920379
Heightened Def Con from 0.00920379 to 0.00920379
Heightened Def Con from 0.00920379 +to 0.00920379
Heightened Def Con from 0.00920379 to 0.00920379
Heightened Def Con from 0.0092038 to 0.0092038
Heightened Def Con from 0.0092038 to 0.0092038
Heightened Def Con from 0.0092038 to 0.0092038
Heightened Def Con from 0.0092038 +to 0.0092038
Heightened Def Con from 0.0092038 +to 0.0092038
Heightened Def Con from 0.00920381 ++to 0.00920381
Heightened Def Con from 0.00920381 to 0.00920381
Heightened Def Con from 0.00920381 +++to 0.00920381
Heightened Def Con from 0.00920381 to 0.00920381
Heightened Def Con from 0.00920381 to 0.00920381
Heightened Def Con from 0.00920381 ++++to 0.00920381
Heightened Def Con from 0.00920381 ++++++to 0.00920381
Heightened Def Con from 0.00920381 ++++to 0.00920381
Heightened Def Con from 0.00920381 to 0.00920381
Heightened Def Con from 0.00920381 to 0.00920381
Heightened Def Con from 0.00920381 +++to 0.00920381
Heightened Def Con from 0.00920381 to 0.00920381
Heightened Def Con from 0.00920381 +++++to 0.00920381
Heightened Def Con from 0.00920381 to 0.00920381
Heightened Def Con from 0.00920381 +to 0.00920381
Heightened Def Con from 0.00920381 to 0.00920381
Heightened Def Con from 0.00920381 to 0.00920381
Heightened Def Con from 0.00920381 ++++to 0.00920381
Heightened Def Con from 0.00920381 +++++to 0.00920382
Heightened Def Con from 0.00920382 ++to 0.00920382
Heightened Def Con from 0.00920382 +++++to 0.00920382
Heightened Def Con from 0.00920382 ++to 0.00920382
Heightened Def Con from 0.00920382 +to 0.00920382
Heightened Def Con from 0.00920382 +++++to 0.00920382
Heightened Def Con from 0.00920382 +to 0.00920382
Heightened Def Con from 0.00920382 to 0.00920382
Heightened Def Con from 0.00920382 +to 0.00920382
Heightened Def Con from 0.00920383 to 0.00920383
Heightened Def Con from 0.00920383 +to 0.00920383
Heightened Def Con from 0.00920383 to 0.00920383
Heightened Def Con from 0.00920383 +++to 0.00920383
Heightened Def Con from 0.00920383 to 0.00920383
Heightened Def Con from 0.00920383 to 0.00920384
Heightened Def Con from 0.00920384 +++++to 0.00920384
Heightened Def Con from 0.00920384 ++to 0.00920384
Heightened Def Con from 0.00920384 +to 0.00920384
Heightened Def Con from 0.00920384 to 0.00920384
Heightened Def Con from 0.00920384 ++to 0.00920384
Heightened Def Con from 0.00920384 to 0.00920384
Heightened Def Con from 0.00920384 +to 0.00920384
Heightened Def Con from 0.00920384 +to 0.00920384
Heightened Def Con from 0.00920384 to 0.00920384
Heightened Def Con from 0.00920384 ++to 0.00920384
Heightened Def Con from 0.00920384 +++to 0.00920384
Heightened Def Con from 0.00920384 +++to 0.00920384
Heightened Def Con from 0.00920384 +++to 0.00920384
Heightened Def Con from 0.00920384 ++++++to 0.00920384
Heightened Def Con from 0.00920384 to 0.00920384
Heightened Def Con from 0.00920384 to 0.00920384
Heightened Def Con from 0.00920384 +++to 0.00920384
Heightened Def Con from 0.00920384 to 0.00920384
Heightened Def Con from 0.00920384 to 0.00920384
Heightened Def Con from 0.00920384 ++++to 0.00920384
Heightened Def Con from 0.00920384 +++++to 0.00920384
Heightened Def Con from 0.00920384 ++++to 0.00920384
Heightened Def Con from 0.00920384 to 0.00920384
Heightened Def Con from 0.00920384 ++++to 0.00920384
Heightened Def Con from 0.00920384 ++to 0.00920384
Heightened Def Con from 0.00920384 to 0.00920385
Heightened Def Con from 0.00920385 +++to 0.00920385
[...]
Heightened Def Con from 0.00920536 to 0.00920536
Heightened Def Con from 0.00920536 ++to 0.00920536
Heightened Def Con from 0.00920536 ++++to 0.00920536
Heightened Def Con from 0.00920536 to 0.00920536
Heightened Def Con from 0.00920536 to 0.00920536
Heightened Def Con from 0.00920536 to 0.00920536
Heightened Def Con from 0.00920536 ++++to 0.00920536
Heightened Def Con from 0.00920536 +++to 0.00920536
Heightened Def Con from 0.00920536 +to 0.00920536
Heightened Def Con from 0.00920536 to 0.00920536
Heightened Def Con from 0.00920536 to 0.00920536
Heightened Def Con from 0.00920536 to 0.00920536
Heightened Def Con from 0.00920536 to 0.00920536
Heightened Def Con from 0.00920536 to 0.00920537
Heightened Def Con from 0.00920537 to 0.00920537
Heightened Def Con from 0.00920537 to 0.00920537
Heightened Def Con from 0.00920537 ++to 0.00920537
Heightened Def Con from 0.00920537 ++to 0.00920537
Heightened Def Con from 0.00920537 ++to 0.00920537
Heightened Def Con from 0.00920537 +to 0.00920537
Heightened Def Con from 0.00920537 to 0.00920537
Heightened Def Con from 0.00920537 +++to 0.00920537
Heightened Def Con from 0.00920537 +++++to 0.00920537
Heightened Def Con from 0.00920537 to 0.00920537
Heightened Def Con from 0.00920537 +to 0.00920537
Heightened Def Con from 0.00920537 to 0.00920537
Heightened Def Con from 0.00920537 to 0.00920537
Heightened Def Con from 0.00920537 to 0.00920537
Heightened Def Con from 0.00920537 to 0.00920537
Heightened Def Con from 0.00920537 to 0.00920537
Heightened Def Con from 0.00920538 +to 0.00920538
Heightened Def Con from 0.00920538 to 0.00920538
Heightened Def Con from 0.00920538 to 0.00920538
Heightened Def Con from 0.00920538 to 0.00920539
Heightened Def Con from 0.00920539 to 0.00920539
Heightened Def Con from 0.00920539 to 0.00920539
Heightened Def Con from 0.00920539 to 0.00920539
Heightened Def Con from 0.0092054 to 0.0092054
Heightened Def Con from 0.0092054 to 0.0092054
Heightened Def Con from 0.0092054 +to 0.0092054
Heightened Def Con from 0.0092054 to 0.0092054
Heightened Def Con from 0.0092054 +to 0.0092054
Heightened Def Con from 0.0092054 to 0.0092054
Heightened Def Con from 0.00920541 ++to 0.00920541
Heightened Def Con from 0.00920541 to 0.00920541
Heightened Def Con from 0.00920541 to 0.00920541
Heightened Def Con from 0.00920542 ++to 0.00920542
Heightened Def Con from 0.00920542 +++++to 0.00920542
Heightened Def Con from 0.00920542 +++++to 0.00920542
Heightened Def Con from 0.00920543 to 0.00920543
Heightened Def Con from 0.00920543 +to 0.00920543
Heightened Def Con from 0.00920543 to 0.00920543
Heightened Def Con from 0.00920543 ++to 0.00920543
Heightened Def Con from 0.00920543 +to 0.00920543
Heightened Def Con from 0.00920543 to 0.00920543
Heightened Def Con from 0.00920544 to 0.00920544
Heightened Def Con from 0.00920544 to 0.00920544
Heightened Def Con from 0.00920544 +to 0.00920544
Heightened Def Con from 0.00920544 to 0.00920544
Heightened Def Con from 0.00920544 to 0.00920544
Heightened Def Con from 0.00920544 +to 0.00920544
Heightened Def Con from 0.00920544 +to 0.00920544
Heightened Def Con from 0.00920544 to 0.00920544
Heightened Def Con from 0.00920544 to 0.00920544
Heightened Def Con from 0.00920544 to 0.00920544
Heightened Def Con from 0.00920544 to 0.00920544
Heightened Def Con from 0.00920544 to 0.00920544
Heightened Def Con from 0.00920544 to 0.00920544
Heightened Def Con from 0.00920544 to 0.00920544
Heightened Def Con from 0.00920544 to 0.00920544
Heightened Def Con from 0.00920544 ++to 0.00920544
Heightened Def Con from 0.00920544 to 0.00920544
Heightened Def Con from 0.00920544 +to 0.00920545
Heightened Def Con from 0.00920545 +to 0.00920545
Heightened Def Con from 0.00920545 to 0.00920545
Heightened Def Con from 0.00920545 +to 0.00920545
Heightened Def Con from 0.00920545 to 0.00920545
Heightened Def Con from 0.00920545 to 0.00920545
Heightened Def Con from 0.00920545 +++to 0.00920545
Heightened Def Con from 0.00920545 +to 0.00920545
Heightened Def Con from 0.00920545 to 0.00920545
Heightened Def Con from 0.00920545 to 0.00920545
Heightened Def Con from 0.00920545 to 0.00920545
Heightened Def Con from 0.00920545 +to 0.00920545
Heightened Def Con from 0.00920545 to 0.00920545
Heightened Def Con from 0.00920545 to 0.00920545
Heightened Def Con from 0.00920545 to 0.00920545
Heightened Def Con from 0.00920545 ++to 0.00920545
Heightened Def Con from 0.00920545 to 0.00920545
Heightened Def Con from 0.00920545 to 0.00920545
Heightened Def Con from 0.00920545 to 0.00920545
Heightened Def Con from 0.00920545 to 0.00920546
Heightened Def Con from 0.00920546 to 0.00920546
Heightened Def Con from 0.00920546 +++to 0.00920546
Heightened Def Con from 0.00920546 ++to 0.00920546
Heightened Def Con from 0.00920546 to 0.00920546
Heightened Def Con from 0.00920546 ++++to 0.00920546
Heightened Def Con from 0.00920546 to 0.00920546
Heightened Def Con from 0.00920546 to 0.00920546
Heightened Def Con from 0.00920546 ++to 0.00920546
Heightened Def Con from 0.00920546 +++++to 0.00920546
Heightened Def Con from 0.00920546 +++to 0.00920546
Heightened Def Con from 0.00920546 +to 0.00920546
Heightened Def Con from 0.00920546 ++to 0.00920546
Heightened Def Con from 0.00920546 to 0.00920546
Heightened Def Con from 0.00920546 to 0.00920546
Heightened Def Con from 0.00920546 +to 0.00920546
Heightened Def Con from 0.00920546 to 0.00920547
Heightened Def Con from 0.00920547 to 0.00920547
Heightened Def Con from 0.00920547 to 0.00920547
Heightened Def Con from 0.00920547 to 0.00920547
Heightened Def Con from 0.00920547 to 0.00920547
Heightened Def Con from 0.00920547 to 0.00920547
Heightened Def Con from 0.00920547 +++to 0.00920547
Heightened Def Con from 0.00920547 to 0.00920547
Heightened Def Con from 0.00920547 to 0.00920547
Heightened Def Con from 0.00920547 to 0.00920547
Heightened Def Con from 0.00920547 +to 0.00920547
Heightened Def Con from 0.00920547 ++to 0.00920547
Heightened Def Con from 0.00920547 +++++to 0.00920547
Heightened Def Con from 0.00920547 to 0.00920547
Heightened Def Con from 0.00920547 to 0.00920547
Heightened Def Con from 0.00920547 ++to 0.00920547
Heightened Def Con from 0.00920547 ++++to 0.00920547
Heightened Def Con from 0.00920547 ++to 0.00920547
Heightened Def Con from 0.00920547 ++to 0.00920547
Heightened Def Con from 0.00920547 +++to 0.00920547
Heightened Def Con from 0.00920547 to 0.00920547
Heightened Def Con from 0.00920547 ++to 0.00920547
Heightened Def Con from 0.00920547 +to 0.00920547
Heightened Def Con from 0.00920547 to 0.00920547
Heightened Def Con from 0.00920547 to 0.00920547
Heightened Def Con from 0.00920547 ++to 0.00920547
Heightened Def Con from 0.00920547 +to 0.00920547
Heightened Def Con from 0.00920547 to 0.00920547
Heightened Def Con from 0.00920547 to 0.00920547
Heightened Def Con from 0.00920547 to 0.00920547
Heightened Def Con from 0.00920547 to 0.00920547
Heightened Def Con from 0.00920547 to 0.00920547
Heightened Def Con from 0.00920547 to 0.00920547
Heightened Def Con from 0.00920547 ++to 0.00920547
Heightened Def Con from 0.00920547 to 0.00920547
Heightened Def Con from 0.00920547 ++++to 0.00920547
Heightened Def Con from 0.00920547 ++to 0.00920547
Heightened Def Con from 0.00920547 to 0.00920547
Heightened Def Con from 0.00920547 +++++to 0.00920548
Heightened Def Con from 0.00920548 to 0.00920548
Heightened Def Con from 0.00920548 to 0.00920548
Heightened Def Con from 0.00920548 ++to 0.00920548
Heightened Def Con from 0.00920548 to 0.00920548
Heightened Def Con from 0.00920548 ++to 0.00920548
Heightened Def Con from 0.00920548 to 0.00920548
Heightened Def Con from 0.00920548 +to 0.00920548
Heightened Def Con from 0.00920548 to 0.00920548
Heightened Def Con from 0.00920548 to 0.00920548
Heightened Def Con from 0.00920548 to 0.00920548
Heightened Def Con from 0.00920548 +to 0.00920548
Heightened Def Con from 0.00920548 ++++++to 0.00920548
Heightened Def Con from 0.00920548 to 0.00920548
Heightened Def Con from 0.00920548 to 0.00920548
Heightened Def Con from 0.00920548 ++to 0.00920548
Heightened Def Con from 0.00920548 +++to 0.00920548
Heightened Def Con from 0.00920548 to 0.00920549
Heightened Def Con from 0.00920549 ++to 0.00920549
Heightened Def Con from 0.00920549 to 0.00920549
Heightened Def Con from 0.00920549 to 0.00920549
Heightened Def Con from 0.00920549 to 0.00920549
Heightened Def Con from 0.00920549 to 0.00920549
Heightened Def Con from 0.00920549 ++++to 0.00920549
Heightened Def Con from 0.00920549 to 0.00920549
Heightened Def Con from 0.00920549 to 0.00920549
Heightened Def Con from 0.00920549 to 0.00920549
Heightened Def Con from 0.00920549 +to 0.00920549
Heightened Def Con from 0.00920549 +++to 0.00920549
Heightened Def Con from 0.00920549 to 0.00920549
Heightened Def Con from 0.00920549 +++to 0.00920549
Heightened Def Con from 0.00920549 to 0.00920549
Heightened Def Con from 0.00920549 to 0.00920549
Heightened Def Con from 0.00920549 +++++to 0.00920549
Heightened Def Con from 0.00920549 ++++++to 0.00920549
Heightened Def Con from 0.00920549 ++to 0.00920549
Heightened Def Con from 0.00920549 +++++to 0.00920549
Heightened Def Con from 0.00920549 to 0.00920549
Heightened Def Con from 0.00920549 to 0.00920549
Heightened Def Con from 0.00920549 to 0.00920549
Heightened Def Con from 0.00920549 ++to 0.00920549
Heightened Def Con from 0.00920549 to 0.00920549
Heightened Def Con from 0.00920549 to 0.00920549
Heightened Def Con from 0.00920549 ++to 0.0092055
Heightened Def Con from 0.0092055 to 0.0092055
Heightened Def Con from 0.0092055 to 0.0092055
Heightened Def Con from 0.0092055 to 0.0092055
Heightened Def Con from 0.0092055 ++to 0.0092055
Heightened Def Con from 0.0092055 +++to 0.0092055
Heightened Def Con from 0.0092055 to 0.0092055
Heightened Def Con from 0.0092055 ++to 0.0092055
Heightened Def Con from 0.0092055 +to 0.0092055
Heightened Def Con from 0.0092055 +to 0.0092055
Heightened Def Con from 0.0092055 to 0.0092055
Heightened Def Con from 0.0092055 to 0.0092055
Heightened Def Con from 0.0092055 ++to 0.0092055
Heightened Def Con from 0.0092055 ++to 0.0092055
Heightened Def Con from 0.0092055 +++to 0.0092055
Heightened Def Con from 0.0092055 to 0.0092055
Heightened Def Con from 0.0092055 to 0.0092055
Heightened Def Con from 0.0092055 +++to 0.0092055
Heightened Def Con from 0.0092055 +++to 0.0092055
Heightened Def Con from 0.0092055 ++to 0.0092055
Heightened Def Con from 0.0092055 +++to 0.0092055
Heightened Def Con from 0.0092055 +++to 0.0092055
Heightened Def Con from 0.0092055 to 0.0092055
Heightened Def Con from 0.0092055 +++to 0.0092055
Heightened Def Con from 0.0092055 ++to 0.0092055
Heightened Def Con from 0.0092055 +++to 0.0092055
Heightened Def Con from 0.0092055 +to 0.0092055
Heightened Def Con from 0.0092055 to 0.0092055
Heightened Def Con from 0.0092055 +to 0.0092055
Heightened Def Con from 0.0092055 to 0.0092055
Heightened Def Con from 0.0092055 +++to 0.0092055
Heightened Def Con from 0.0092055 +to 0.0092055
Heightened Def Con from 0.0092055 to 0.00920551
Heightened Def Con from 0.00920551 ++++++to 0.00920551
Heightened Def Con from 0.00920551 +to 0.00920551
Heightened Def Con from 0.00920551 to 0.00920551
Heightened Def Con from 0.00920551 to 0.00920551
Heightened Def Con from 0.00920551 to 0.00920551
Heightened Def Con from 0.00920551 ++to 0.00920551
Heightened Def Con from 0.00920551 ++to 0.00920551
Heightened Def Con from 0.00920551 ++to 0.00920551
Heightened Def Con from 0.00920551 to 0.00920551
Heightened Def Con from 0.00920551 +to 0.00920551
Heightened Def Con from 0.00920551 +++++to 0.00920551
Heightened Def Con from 0.00920551 +++to 0.00920551
Heightened Def Con from 0.00920551 ++to 0.00920551
Heightened Def Con from 0.00920551 ++to 0.00920551
Heightened Def Con from 0.00920551 to 0.00920551
Heightened Def Con from 0.00920551 ++to 0.00920551
Heightened Def Con from 0.00920551 ++to 0.00920551
Heightened Def Con from 0.00920551 +to 0.00920551
Heightened Def Con from 0.00920551 ++++to 0.00920551
Heightened Def Con from 0.00920551 +to 0.00920551
Heightened Def Con from 0.00920551 +++to 0.00920551
Heightened Def Con from 0.00920551 +to 0.00920551
Heightened Def Con from 0.00920551 ++to 0.00920551
Heightened Def Con from 0.00920551 to 0.00920552
Heightened Def Con from 0.00920552 ++to 0.00920552
Heightened Def Con from 0.00920552 to 0.00920552
Heightened Def Con from 0.00920552 to 0.00920552
Heightened Def Con from 0.00920552 +to 0.00920552
Heightened Def Con from 0.00920552 +to 0.00920552
Heightened Def Con from 0.00920552 +++to 0.00920552
Heightened Def Con from 0.00920552 +++to 0.00920552
Heightened Def Con from 0.00920552 to 0.00920552
Heightened Def Con from 0.00920552 +to 0.00920552
Heightened Def Con from 0.00920552 +to 0.00920552
Heightened Def Con from 0.00920552 ++to 0.00920552
Heightened Def Con from 0.00920552 +to 0.00920552
Heightened Def Con from 0.00920552 to 0.00920552
Heightened Def Con from 0.00920552 to 0.00920552
Heightened Def Con from 0.00920552 +++to 0.00920552
Heightened Def Con from 0.00920552 +to 0.00920552
Heightened Def Con from 0.00920552 ++++to 0.00920552
Heightened Def Con from 0.00920552 to 0.00920552
Heightened Def Con from 0.00920552 ++to 0.00920552
Heightened Def Con from 0.00920552 +++++to 0.00920552
Heightened Def Con from 0.00920552 ++to 0.00920552
Heightened Def Con from 0.00920552 ++to 0.00920552
Heightened Def Con from 0.00920552 to 0.00920552
Heightened Def Con from 0.00920552 ++to 0.00920552
Heightened Def Con from 0.00920552 +++++to 0.00920553
Heightened Def Con from 0.00920553 ++to 0.00920553
Heightened Def Con from 0.00920553 ++to 0.00920553
Heightened Def Con from 0.00920553 ++++++to 0.00920553
Heightened Def Con from 0.00920553 +++++to 0.00920553
Heightened Def Con from 0.00920553 ++to 0.00920553
Heightened Def Con from 0.00920553 ++++to 0.00920553
Heightened Def Con from 0.00920553 ++to 0.00920553
Heightened Def Con from 0.00920553 +++++to 0.00920553
Heightened Def Con from 0.00920553 to 0.00920553
Heightened Def Con from 0.00920553 +++to 0.00920553
Heightened Def Con from 0.00920553 to 0.00920553
Heightened Def Con from 0.00920553 to 0.00920553
Heightened Def Con from 0.00920553 to 0.00920553
Heightened Def Con from 0.00920553 ++to 0.00920553
Heightened Def Con from 0.00920553 to 0.00920553
Heightened Def Con from 0.00920553 ++to 0.00920553
Heightened Def Con from 0.00920553 to 0.00920553
Heightened Def Con from 0.00920553 to 0.00920553
Heightened Def Con from 0.00920553 +++++to 0.00920553
Heightened Def Con from 0.00920553 to 0.00920553
Heightened Def Con from 0.00920553 to 0.00920553
Heightened Def Con from 0.00920553 to 0.00920553
Heightened Def Con from 0.00920553 to 0.00920553
Heightened Def Con from 0.00920553 to 0.00920553
Heightened Def Con from 0.00920553 to 0.00920553
Heightened Def Con from 0.00920553 ++to 0.00920553
Heightened Def Con from 0.00920553 ++to 0.00920553
Heightened Def Con from 0.00920553 to 0.00920553
Heightened Def Con from 0.00920553 to 0.00920553
Heightened Def Con from 0.00920553 +++to 0.00920553
Heightened Def Con from 0.00920553 +to 0.00920553
Heightened Def Con from 0.00920553 to 0.00920553
Heightened Def Con from 0.00920553 to 0.00920553
Heightened Def Con from 0.00920553 ++++to 0.00920554
Heightened Def Con from 0.00920554 to 0.00920554
Heightened Def Con from 0.00920554 +to 0.00920554
Heightened Def Con from 0.00920554 to 0.00920554
Heightened Def Con from 0.00920554 ++to 0.00920554
Heightened Def Con from 0.00920554 ++to 0.00920554
Heightened Def Con from 0.00920554 +++to 0.00920554
Heightened Def Con from 0.00920554 ++++++to 0.00920554
Heightened Def Con from 0.00920554 +to 0.00920554
Heightened Def Con from 0.00920554 to 0.00920554
Heightened Def Con from 0.00920554 ++to 0.00920554
Heightened Def Con from 0.00920554 to 0.00920554
Heightened Def Con from 0.00920554 +++to 0.00920554
Heightened Def Con from 0.00920554 +++to 0.00920554
Heightened Def Con from 0.00920554 +++to 0.00920554
Heightened Def Con from 0.00920554 ++++to 0.00920554
Heightened Def Con from 0.00920554 ++++to 0.00920554
Heightened Def Con from 0.00920554 to 0.00920554
Heightened Def Con from 0.00920554 ++to 0.00920554
Heightened Def Con from 0.00920555 +to 0.00920555
Heightened Def Con from 0.00920555 +++to 0.00920555
Heightened Def Con from 0.00920555 ++to 0.00920555
Heightened Def Con from 0.00920555 ++to 0.00920555
Heightened Def Con from 0.00920555 ++to 0.00920555
Heightened Def Con from 0.00920555 ++to 0.00920555
Heightened Def Con from 0.00920555 ++++++++to 0.00920555
Heightened Def Con from 0.00920555 ++to 0.00920555
Heightened Def Con from 0.00920555 to 0.00920555
Heightened Def Con from 0.00920555 ++to 0.00920555
Heightened Def Con from 0.00920555 +++++to 0.00920555
Heightened Def Con from 0.00920555 +++to 0.00920555
Heightened Def Con from 0.00920555 to 0.00920555
Heightened Def Con from 0.00920555 to 0.00920556
Heightened Def Con from 0.00920556 to 0.00920556
Heightened Def Con from 0.00920556 to 0.00920556
Heightened Def Con from 0.00920556 ++to 0.00920556
Heightened Def Con from 0.00920556 to 0.00920556
Heightened Def Con from 0.00920556 ++++++to 0.00920556
Heightened Def Con from 0.00920556 +++to 0.00920556
Heightened Def Con from 0.00920556 to 0.00920556
Heightened Def Con from 0.00920556 to 0.00920556
Heightened Def Con from 0.00920556 to 0.00920556
Heightened Def Con from 0.00920556 to 0.00920556
Heightened Def Con from 0.00920556 to 0.00920556
Heightened Def Con from 0.00920556 ++++++to 0.00920556
Heightened Def Con from 0.00920556 +to 0.00920556
Heightened Def Con from 0.00920556 to 0.00920556
Heightened Def Con from 0.00920556 to 0.00920556
Heightened Def Con from 0.00920556 +to 0.00920556
Heightened Def Con from 0.00920557 to 0.00920557
Heightened Def Con from 0.00920557 to 0.00920557
Heightened Def Con from 0.00920557 ++++++to 0.00920557
Heightened Def Con from 0.00920557 ++to 0.00920557
Heightened Def Con from 0.00920557 ++++to 0.00920557
Heightened Def Con from 0.00920557 to 0.00920557
Heightened Def Con from 0.00920557 +to 0.00920557
Heightened Def Con from 0.00920557 +++to 0.00920557
Heightened Def Con from 0.00920557 +to 0.00920557
Heightened Def Con from 0.00920557 ++++to 0.00920557
Heightened Def Con from 0.00920557 to 0.00920557
Heightened Def Con from 0.00920557 +++to 0.00920558
Heightened Def Con from 0.00920558 to 0.00920558
Heightened Def Con from 0.00920558 to 0.00920558
Heightened Def Con from 0.00920558 to 0.00920558
Heightened Def Con from 0.00920558 ++++to 0.00920558
Heightened Def Con from 0.00920558 to 0.00920558
Heightened Def Con from 0.00920558 to 0.00920558
Heightened Def Con from 0.00920558 +++++to 0.00920558
Heightened Def Con from 0.00920558 to 0.00920558
Heightened Def Con from 0.00920558 to 0.00920558
Heightened Def Con from 0.00920558 to 0.00920558
Heightened Def Con from 0.00920558 to 0.00920558
Heightened Def Con from 0.00920558 to 0.00920558
Heightened Def Con from 0.00920558 to 0.00920558
Heightened Def Con from 0.00920558 ++to 0.00920558
Heightened Def Con from 0.00920558 +++to 0.00920558
Heightened Def Con from 0.00920558 to 0.00920558
Heightened Def Con from 0.00920558 ++++to 0.00920558
Heightened Def Con from 0.00920559 +to 0.00920559
Heightened Def Con from 0.00920559 to 0.00920559
Heightened Def Con from 0.00920559 +to 0.00920559
Heightened Def Con from 0.00920559 to 0.00920559
Heightened Def Con from 0.00920559 +++to 0.00920559
Heightened Def Con from 0.00920559 +++to 0.00920559
Heightened Def Con from 0.00920559 +++to 0.00920559
Heightened Def Con from 0.00920559 to 0.00920559
Heightened Def Con from 0.00920559 to 0.00920559
Heightened Def Con from 0.00920559 to 0.00920559
Heightened Def Con from 0.00920559 +++to 0.00920559
Heightened Def Con from 0.00920559 to 0.00920559
Heightened Def Con from 0.00920559 ++to 0.00920559
Heightened Def Con from 0.00920559 to 0.00920559
Heightened Def Con from 0.00920559 to 0.00920559
Heightened Def Con from 0.00920559 to 0.00920559
Heightened Def Con from 0.00920559 to 0.00920559
Heightened Def Con from 0.00920559 ++++++to