Missing ".ends" statement in file "..\sym\EXTRA\DIODES.COM\ZENER\LIB\zener.lib"
Questionable use of curly braces in "src={bzx84c6v8t}"
    Error: undefined symbol in: "[bzx84c6v8t]"
Circuit: * C:\Users\cliente\Documents\(EngenhariaEletrônica)\(FASE_4)\Eletrônica_I\Fonte_Linear_simetrica_5V\esquematico.asc

Early termination of direct N-R iteration.
Direct Newton iteration failed to find .op point.  (Use ".option noopiter" to skip.)
Starting Gmin stepping
Gmin = 10
Gmin = 1.07374
Gmin = 0.115292
Gmin = 0.0123794
Gmin = 0.00132923
Gmin = 0.000142725
Gmin = 1.5325e-005
Gmin = 1.6455e-006
Gmin = 1.76685e-007
Gmin = 1.89714e-008
Gmin = 2.03704e-009
Gmin = 2.18725e-010
Gmin = 2.34854e-011
Gmin = 2.52173e-012
Gmin = 2.70769e-013
Gmin = 0
Gmin stepping succeeded in finding the operating point.


Date: Fri Dec 09 11:16:11 2016
Total elapsed time: 1.590 seconds.

tnom = 27
temp = 27
method = modified trap
totiter = 20711
traniter = 20234
tranpoints = 5554
accept = 4090
rejected = 1464
matrix size = 92
fillins = 154
solver = Normal
Matrix Compiler1: 15.85 KB object code size  6.8/5.1/[2.6]
Matrix Compiler2: 10.52 KB object code size  4.3/3.1/[1.5]


